---------------------------------------------------------------------------
  =========                 |
  \\      /  F ield         | OpenFOAM in a container [from OpenCFD Ltd.]
   \\    /   O peration     |
    \\  /    A nd           | www.openfoam.com
     \\/     M anipulation  |
---------------------------------------------------------------------------
 Container Recipes:  https://develop.openfoam.com/packaging/containers
---------------------------------------------------------------------------
 Release notes:  https://www.openfoam.com/news/main-news/openfoam-v2312
 Documentation:  https://www.openfoam.com/documentation/
 Issue Tracker:  https://develop.openfoam.com/Development/openfoam/issues/
 Local Help:     more /openfoam/README
---------------------------------------------------------------------------
System   :  Ubuntu 22.04.3 LTS  (admin user: sudofoam)
OpenFOAM :  /usr/lib/openfoam/openfoam2312
Build    :  _c39a0f64-20231220 OPENFOAM=2312 patch=0

Note
    Different OpenFOAM components and modules may be present (or missing)
    on any particular container installation.
    Eg, source code, tutorials, in-situ visualization, paraview plugins,
        external linear-solver interfaces etc.
---------------------------------------------------------------------------
[?2004hdocker-openfoam2312:~/
openfoam$ ./src/bash_scripts/test.sh
[?2004l/*---------------------------------------------------------------------------*\
| =========                 |                                                 |
| \\      /  F ield         | OpenFOAM: The Open Source CFD Toolbox           |
|  \\    /   O peration     | Version:  2312                                  |
|   \\  /    A nd           | Website:  www.openfoam.com                      |
|    \\/     M anipulation  |                                                 |
\*---------------------------------------------------------------------------*/
Build  : _c39a0f64-20231220 OPENFOAM=2312 version=2312
Arch   : "LSB;label=32;scalar=64"
Exec   : simpleFoam
Date   : Jul 18 2024
Time   : 02:31:39
Host   : da434005a522
PID    : 262
I/O    : uncollated
Case   : /home/openfoam/data/pressure_sweep/cases/1.6e-05/steady_state_1.6e-05
nProcs : 1
trapFpe: Floating point exception trapping enabled (FOAM_SIGFPE).
fileModificationChecking : Monitoring run-time modified files using timeStampMaster (fileModificationSkew 5, maxFileModificationPolls 20)
allowSystemOperations : Allowing user-supplied system call operations

// * * * * * * * * * * * * * * * * * * * * * * * * * * * * * * * * * * * * * //
Create time

Create mesh for time = 0


SIMPLE: convergence criteria
    field p	 tolerance 0.001
    field U	 tolerance 0.0001

Reading field p

Reading field U

Reading/calculating face flux field phi

Selecting incompressible transport model Newtonian
Selecting turbulence model type laminar
Selecting laminar stress model Stokes
No MRF models present

No finite volume options present

Starting time loop

Time = 1

smoothSolver:  Solving for Ux, Initial residual = 0, Final residual = 0, No Iterations 0
smoothSolver:  Solving for Uy, Initial residual = 0, Final residual = 0, No Iterations 0
GAMG:  Solving for p, Initial residual = 0.997691, Final residual = 9.47703e-07, No Iterations 25
time step continuity errors : sum local = 6.67373e-07, global = 1.16438e-17, cumulative = 1.16438e-17
ExecutionTime = 0.03 s  ClockTime = 0 s

Time = 2

smoothSolver:  Solving for Ux, Initial residual = 0.244885, Final residual = 7.39918e-07, No Iterations 32
smoothSolver:  Solving for Uy, Initial residual = 0.315523, Final residual = 9.93126e-07, No Iterations 33
GAMG:  Solving for p, Initial residual = 0.458788, Final residual = 7.92738e-07, No Iterations 27
time step continuity errors : sum local = 1.4215e-08, global = -1.24051e-17, cumulative = -7.61281e-19
ExecutionTime = 0.05 s  ClockTime = 0 s

Time = 3

smoothSolver:  Solving for Ux, Initial residual = 0.13391, Final residual = 9.17391e-07, No Iterations 30
smoothSolver:  Solving for Uy, Initial residual = 0.191629, Final residual = 7.91891e-07, No Iterations 33
GAMG:  Solving for p, Initial residual = 0.162777, Final residual = 9.55183e-07, No Iterations 24
time step continuity errors : sum local = 2.10924e-08, global = 8.12917e-18, cumulative = 7.36789e-18
ExecutionTime = 0.07 s  ClockTime = 0 s

Time = 4

smoothSolver:  Solving for Ux, Initial residual = 0.0922922, Final residual = 8.79344e-07, No Iterations 29
smoothSolver:  Solving for Uy, Initial residual = 0.133588, Final residual = 7.6496e-07, No Iterations 32
GAMG:  Solving for p, Initial residual = 0.112432, Final residual = 9.36445e-07, No Iterations 24
time step continuity errors : sum local = 1.85256e-08, global = 1.26685e-17, cumulative = 2.00364e-17
ExecutionTime = 0.08 s  ClockTime = 0 s

Time = 5

smoothSolver:  Solving for Ux, Initial residual = 0.0704348, Final residual = 9.37609e-07, No Iterations 28
smoothSolver:  Solving for Uy, Initial residual = 0.10139, Final residual = 8.43016e-07, No Iterations 31
GAMG:  Solving for p, Initial residual = 0.0812187, Final residual = 7.06233e-07, No Iterations 26
time step continuity errors : sum local = 1.38528e-08, global = 1.05411e-17, cumulative = 3.05775e-17
ExecutionTime = 0.1 s  ClockTime = 0 s

Time = 6

smoothSolver:  Solving for Ux, Initial residual = 0.0571285, Final residual = 7.28696e-07, No Iterations 28
smoothSolver:  Solving for Uy, Initial residual = 0.0843267, Final residual = 9.82187e-07, No Iterations 30
GAMG:  Solving for p, Initial residual = 0.0723748, Final residual = 7.14554e-07, No Iterations 26
time step continuity errors : sum local = 1.43671e-08, global = 3.04848e-18, cumulative = 3.3626e-17
ExecutionTime = 0.12 s  ClockTime = 0 s

Time = 7

smoothSolver:  Solving for Ux, Initial residual = 0.0481075, Final residual = 8.70283e-07, No Iterations 27
smoothSolver:  Solving for Uy, Initial residual = 0.0718581, Final residual = 8.24481e-07, No Iterations 30
GAMG:  Solving for p, Initial residual = 0.0613796, Final residual = 6.76497e-07, No Iterations 26
time step continuity errors : sum local = 1.40638e-08, global = -4.24114e-18, cumulative = 2.93848e-17
ExecutionTime = 0.14 s  ClockTime = 0 s

Time = 8

smoothSolver:  Solving for Ux, Initial residual = 0.0415554, Final residual = 7.29819e-07, No Iterations 27
smoothSolver:  Solving for Uy, Initial residual = 0.0629307, Final residual = 7.06423e-07, No Iterations 30
GAMG:  Solving for p, Initial residual = 0.0582091, Final residual = 6.33594e-07, No Iterations 26
time step continuity errors : sum local = 1.35436e-08, global = 5.43916e-18, cumulative = 3.4824e-17
ExecutionTime = 0.16 s  ClockTime = 0 s

Time = 9

smoothSolver:  Solving for Ux, Initial residual = 0.0365654, Final residual = 9.19417e-07, No Iterations 26
smoothSolver:  Solving for Uy, Initial residual = 0.0557332, Final residual = 8.76779e-07, No Iterations 29
GAMG:  Solving for p, Initial residual = 0.0544596, Final residual = 9.51946e-07, No Iterations 25
time step continuity errors : sum local = 2.07913e-08, global = -2.60159e-18, cumulative = 3.22224e-17
ExecutionTime = 0.17 s  ClockTime = 0 s

Time = 10

smoothSolver:  Solving for Ux, Initial residual = 0.0326379, Final residual = 8.0378e-07, No Iterations 26
smoothSolver:  Solving for Uy, Initial residual = 0.0496888, Final residual = 7.74206e-07, No Iterations 29
GAMG:  Solving for p, Initial residual = 0.051088, Final residual = 9.02993e-07, No Iterations 25
time step continuity errors : sum local = 2.01485e-08, global = 3.10223e-18, cumulative = 3.53246e-17
ExecutionTime = 0.19 s  ClockTime = 0 s

Time = 11

smoothSolver:  Solving for Ux, Initial residual = 0.0294671, Final residual = 7.13948e-07, No Iterations 26
smoothSolver:  Solving for Uy, Initial residual = 0.0444085, Final residual = 9.83921e-07, No Iterations 28
GAMG:  Solving for p, Initial residual = 0.0474607, Final residual = 8.6288e-07, No Iterations 25
time step continuity errors : sum local = 1.97156e-08, global = 5.67395e-18, cumulative = 4.09986e-17
ExecutionTime = 0.21 s  ClockTime = 0 s

Time = 12

smoothSolver:  Solving for Ux, Initial residual = 0.026854, Final residual = 9.40371e-07, No Iterations 25
smoothSolver:  Solving for Uy, Initial residual = 0.0396477, Final residual = 8.79841e-07, No Iterations 28
GAMG:  Solving for p, Initial residual = 0.0444525, Final residual = 8.16208e-07, No Iterations 25
time step continuity errors : sum local = 1.91581e-08, global = 4.05426e-18, cumulative = 4.50528e-17
ExecutionTime = 0.22 s  ClockTime = 0 s

Time = 13

smoothSolver:  Solving for Ux, Initial residual = 0.0246635, Final residual = 8.54748e-07, No Iterations 25
smoothSolver:  Solving for Uy, Initial residual = 0.0355155, Final residual = 7.92116e-07, No Iterations 28
GAMG:  Solving for p, Initial residual = 0.0422386, Final residual = 7.524e-07, No Iterations 25
time step continuity errors : sum local = 1.82028e-08, global = 9.36264e-19, cumulative = 4.59891e-17
ExecutionTime = 0.24 s  ClockTime = 0 s

Time = 14

smoothSolver:  Solving for Ux, Initial residual = 0.0228003, Final residual = 7.84321e-07, No Iterations 25
smoothSolver:  Solving for Uy, Initial residual = 0.03214, Final residual = 7.13482e-07, No Iterations 28
GAMG:  Solving for p, Initial residual = 0.0406184, Final residual = 9.24541e-07, No Iterations 24
time step continuity errors : sum local = 2.31988e-08, global = -9.13703e-18, cumulative = 3.68521e-17
ExecutionTime = 0.27 s  ClockTime = 0 s

Time = 15

smoothSolver:  Solving for Ux, Initial residual = 0.0211962, Final residual = 7.2543e-07, No Iterations 25
smoothSolver:  Solving for Uy, Initial residual = 0.0293011, Final residual = 9.22354e-07, No Iterations 27
GAMG:  Solving for p, Initial residual = 0.0392451, Final residual = 8.77719e-07, No Iterations 24
time step continuity errors : sum local = 2.28403e-08, global = -6.85903e-19, cumulative = 3.61662e-17
ExecutionTime = 0.28 s  ClockTime = 0 s

Time = 16

smoothSolver:  Solving for Ux, Initial residual = 0.0198015, Final residual = 9.84508e-07, No Iterations 24
smoothSolver:  Solving for Uy, Initial residual = 0.0269927, Final residual = 8.33395e-07, No Iterations 27
GAMG:  Solving for p, Initial residual = 0.0378739, Final residual = 8.75702e-07, No Iterations 24
time step continuity errors : sum local = 2.36781e-08, global = -2.03653e-18, cumulative = 3.41296e-17
ExecutionTime = 0.3 s  ClockTime = 0 s

Time = 17

smoothSolver:  Solving for Ux, Initial residual = 0.0185777, Final residual = 9.20351e-07, No Iterations 24
smoothSolver:  Solving for Uy, Initial residual = 0.0250603, Final residual = 7.52171e-07, No Iterations 27
GAMG:  Solving for p, Initial residual = 0.0364917, Final residual = 8.93883e-07, No Iterations 24
time step continuity errors : sum local = 2.51395e-08, global = 3.43218e-18, cumulative = 3.75618e-17
ExecutionTime = 0.32 s  ClockTime = 0 s

Time = 18

smoothSolver:  Solving for Ux, Initial residual = 0.0174958, Final residual = 8.64409e-07, No Iterations 24
smoothSolver:  Solving for Uy, Initial residual = 0.0234711, Final residual = 9.77501e-07, No Iterations 26
GAMG:  Solving for p, Initial residual = 0.0350766, Final residual = 8.84855e-07, No Iterations 24
time step continuity errors : sum local = 2.58851e-08, global = 2.9177e-18, cumulative = 4.04795e-17
ExecutionTime = 0.33 s  ClockTime = 0 s

Time = 19

smoothSolver:  Solving for Ux, Initial residual = 0.0165336, Final residual = 8.15011e-07, No Iterations 24
smoothSolver:  Solving for Uy, Initial residual = 0.02214, Final residual = 8.89904e-07, No Iterations 26
GAMG:  Solving for p, Initial residual = 0.033629, Final residual = 8.52754e-07, No Iterations 24
time step continuity errors : sum local = 2.5925e-08, global = 1.13604e-17, cumulative = 5.184e-17
ExecutionTime = 0.35 s  ClockTime = 0 s

Time = 20

smoothSolver:  Solving for Ux, Initial residual = 0.0156725, Final residual = 7.7088e-07, No Iterations 24
smoothSolver:  Solving for Uy, Initial residual = 0.0209781, Final residual = 8.17349e-07, No Iterations 26
GAMG:  Solving for p, Initial residual = 0.0322085, Final residual = 8.21647e-07, No Iterations 24
time step continuity errors : sum local = 2.59173e-08, global = 9.1337e-18, cumulative = 6.09737e-17
ExecutionTime = 0.37 s  ClockTime = 0 s

Time = 21

smoothSolver:  Solving for Ux, Initial residual = 0.0148975, Final residual = 7.31038e-07, No Iterations 24
smoothSolver:  Solving for Uy, Initial residual = 0.019968, Final residual = 7.53638e-07, No Iterations 26
GAMG:  Solving for p, Initial residual = 0.0308136, Final residual = 7.96445e-07, No Iterations 24
time step continuity errors : sum local = 2.60125e-08, global = 9.87405e-19, cumulative = 6.19611e-17
ExecutionTime = 0.38 s  ClockTime = 0 s

Time = 22

smoothSolver:  Solving for Ux, Initial residual = 0.014196, Final residual = 6.94726e-07, No Iterations 24
smoothSolver:  Solving for Uy, Initial residual = 0.0190621, Final residual = 7.01824e-07, No Iterations 26
GAMG:  Solving for p, Initial residual = 0.0294421, Final residual = 7.73835e-07, No Iterations 24
time step continuity errors : sum local = 2.61113e-08, global = -3.29187e-18, cumulative = 5.86692e-17
ExecutionTime = 0.4 s  ClockTime = 0 s

Time = 23

smoothSolver:  Solving for Ux, Initial residual = 0.0135579, Final residual = 9.59127e-07, No Iterations 23
smoothSolver:  Solving for Uy, Initial residual = 0.0182436, Final residual = 9.48387e-07, No Iterations 25
GAMG:  Solving for p, Initial residual = 0.0281285, Final residual = 7.50109e-07, No Iterations 24
time step continuity errors : sum local = 2.60901e-08, global = 9.48466e-18, cumulative = 6.81538e-17
ExecutionTime = 0.41 s  ClockTime = 0 s

Time = 24

smoothSolver:  Solving for Ux, Initial residual = 0.0129751, Final residual = 9.13702e-07, No Iterations 23
smoothSolver:  Solving for Uy, Initial residual = 0.017486, Final residual = 8.98181e-07, No Iterations 25
GAMG:  Solving for p, Initial residual = 0.0268652, Final residual = 7.21777e-07, No Iterations 24
time step continuity errors : sum local = 2.58159e-08, global = 2.31456e-18, cumulative = 7.04684e-17
ExecutionTime = 0.43 s  ClockTime = 0 s

Time = 25

smoothSolver:  Solving for Ux, Initial residual = 0.0124404, Final residual = 8.71481e-07, No Iterations 23
smoothSolver:  Solving for Uy, Initial residual = 0.0167747, Final residual = 8.58695e-07, No Iterations 25
GAMG:  Solving for p, Initial residual = 0.0256639, Final residual = 6.86957e-07, No Iterations 24
time step continuity errors : sum local = 2.51994e-08, global = -5.65734e-18, cumulative = 6.48111e-17
ExecutionTime = 0.44 s  ClockTime = 0 s

Time = 26

smoothSolver:  Solving for Ux, Initial residual = 0.011948, Final residual = 8.32003e-07, No Iterations 23
smoothSolver:  Solving for Uy, Initial residual = 0.016128, Final residual = 8.27436e-07, No Iterations 25
GAMG:  Solving for p, Initial residual = 0.0245335, Final residual = 6.45145e-07, No Iterations 24
time step continuity errors : sum local = 2.42083e-08, global = 1.09774e-18, cumulative = 6.59088e-17
ExecutionTime = 0.46 s  ClockTime = 0 s

Time = 27

smoothSolver:  Solving for Ux, Initial residual = 0.0114922, Final residual = 7.94842e-07, No Iterations 23
smoothSolver:  Solving for Uy, Initial residual = 0.0155537, Final residual = 8.05803e-07, No Iterations 25
GAMG:  Solving for p, Initial residual = 0.0234946, Final residual = 9.2494e-07, No Iterations 23
time step continuity errors : sum local = 3.52938e-08, global = 2.06082e-18, cumulative = 6.79696e-17
ExecutionTime = 0.48 s  ClockTime = 0 s

Time = 28

smoothSolver:  Solving for Ux, Initial residual = 0.0110682, Final residual = 7.59673e-07, No Iterations 23
smoothSolver:  Solving for Uy, Initial residual = 0.0150836, Final residual = 7.93205e-07, No Iterations 25
GAMG:  Solving for p, Initial residual = 0.0225228, Final residual = 8.43306e-07, No Iterations 23
time step continuity errors : sum local = 3.27545e-08, global = 6.87985e-18, cumulative = 7.48495e-17
ExecutionTime = 0.49 s  ClockTime = 0 s

Time = 29

smoothSolver:  Solving for Ux, Initial residual = 0.0106722, Final residual = 7.2619e-07, No Iterations 23
smoothSolver:  Solving for Uy, Initial residual = 0.0147402, Final residual = 7.86712e-07, No Iterations 25
GAMG:  Solving for p, Initial residual = 0.0215977, Final residual = 7.55306e-07, No Iterations 23
time step continuity errors : sum local = 2.97938e-08, global = 2.83013e-18, cumulative = 7.76796e-17
ExecutionTime = 0.51 s  ClockTime = 0 s

Time = 30

smoothSolver:  Solving for Ux, Initial residual = 0.0103012, Final residual = 6.94194e-07, No Iterations 23
smoothSolver:  Solving for Uy, Initial residual = 0.014547, Final residual = 7.84873e-07, No Iterations 25
GAMG:  Solving for p, Initial residual = 0.02073, Final residual = 9.06378e-07, No Iterations 22
time step continuity errors : sum local = 3.6356e-08, global = 1.34635e-17, cumulative = 9.11431e-17
ExecutionTime = 0.52 s  ClockTime = 0 s

Time = 31

smoothSolver:  Solving for Ux, Initial residual = 0.0099518, Final residual = 9.61019e-07, No Iterations 22
smoothSolver:  Solving for Uy, Initial residual = 0.0144767, Final residual = 7.92123e-07, No Iterations 25
GAMG:  Solving for p, Initial residual = 0.0199222, Final residual = 7.5188e-07, No Iterations 22
time step continuity errors : sum local = 3.04911e-08, global = -3.67954e-18, cumulative = 8.74635e-17
ExecutionTime = 0.54 s  ClockTime = 0 s

Time = 32

smoothSolver:  Solving for Ux, Initial residual = 0.00962164, Final residual = 9.18095e-07, No Iterations 22
smoothSolver:  Solving for Uy, Initial residual = 0.0145288, Final residual = 8.02434e-07, No Iterations 25
GAMG:  Solving for p, Initial residual = 0.0191914, Final residual = 9.29653e-07, No Iterations 21
time step continuity errors : sum local = 3.78959e-08, global = 1.48171e-18, cumulative = 8.89452e-17
ExecutionTime = 0.55 s  ClockTime = 0 s

Time = 33

smoothSolver:  Solving for Ux, Initial residual = 0.00930887, Final residual = 8.76813e-07, No Iterations 22
smoothSolver:  Solving for Uy, Initial residual = 0.0146522, Final residual = 8.19233e-07, No Iterations 25
GAMG:  Solving for p, Initial residual = 0.0185351, Final residual = 9.72267e-07, No Iterations 20
time step continuity errors : sum local = 4.00246e-08, global = 3.06672e-18, cumulative = 9.2012e-17
ExecutionTime = 0.56 s  ClockTime = 0 s

Time = 34

smoothSolver:  Solving for Ux, Initial residual = 0.00901157, Final residual = 8.37109e-07, No Iterations 22
smoothSolver:  Solving for Uy, Initial residual = 0.0148886, Final residual = 8.37244e-07, No Iterations 25
GAMG:  Solving for p, Initial residual = 0.0179519, Final residual = 6.73674e-07, No Iterations 20
time step continuity errors : sum local = 2.78377e-08, global = 2.92221e-18, cumulative = 9.49342e-17
ExecutionTime = 0.58 s  ClockTime = 0 s

Time = 35

smoothSolver:  Solving for Ux, Initial residual = 0.00872819, Final residual = 7.98874e-07, No Iterations 22
smoothSolver:  Solving for Uy, Initial residual = 0.0151811, Final residual = 8.63412e-07, No Iterations 25
GAMG:  Solving for p, Initial residual = 0.0174741, Final residual = 7.19401e-07, No Iterations 19
time step continuity errors : sum local = 2.97094e-08, global = -2.65093e-18, cumulative = 9.22832e-17
ExecutionTime = 0.59 s  ClockTime = 0 s

Time = 36

smoothSolver:  Solving for Ux, Initial residual = 0.00845734, Final residual = 7.6207e-07, No Iterations 22
smoothSolver:  Solving for Uy, Initial residual = 0.015557, Final residual = 8.88931e-07, No Iterations 25
GAMG:  Solving for p, Initial residual = 0.0171097, Final residual = 7.25966e-07, No Iterations 19
time step continuity errors : sum local = 2.98436e-08, global = 1.11326e-17, cumulative = 1.03416e-16
ExecutionTime = 0.61 s  ClockTime = 0 s

Time = 37

smoothSolver:  Solving for Ux, Initial residual = 0.00819807, Final residual = 7.26698e-07, No Iterations 22
smoothSolver:  Solving for Uy, Initial residual = 0.0159999, Final residual = 9.19933e-07, No Iterations 25
GAMG:  Solving for p, Initial residual = 0.0168493, Final residual = 9.67521e-07, No Iterations 18
time step continuity errors : sum local = 4.00355e-08, global = -5.10385e-18, cumulative = 9.8312e-17
ExecutionTime = 0.62 s  ClockTime = 0 s

Time = 38

smoothSolver:  Solving for Ux, Initial residual = 0.00794959, Final residual = 6.92733e-07, No Iterations 22
smoothSolver:  Solving for Uy, Initial residual = 0.0164645, Final residual = 9.47941e-07, No Iterations 25
GAMG:  Solving for p, Initial residual = 0.0166721, Final residual = 8.00053e-07, No Iterations 19
time step continuity errors : sum local = 3.29783e-08, global = 5.59438e-19, cumulative = 9.88715e-17
ExecutionTime = 0.64 s  ClockTime = 0 s

Time = 39

smoothSolver:  Solving for Ux, Initial residual = 0.00771091, Final residual = 9.58503e-07, No Iterations 21
smoothSolver:  Solving for Uy, Initial residual = 0.0169931, Final residual = 9.74679e-07, No Iterations 25
GAMG:  Solving for p, Initial residual = 0.0165463, Final residual = 7.42204e-07, No Iterations 19
time step continuity errors : sum local = 3.06068e-08, global = 6.60942e-18, cumulative = 1.05481e-16
ExecutionTime = 0.65 s  ClockTime = 0 s

Time = 40

smoothSolver:  Solving for Ux, Initial residual = 0.00748151, Final residual = 9.13295e-07, No Iterations 21
smoothSolver:  Solving for Uy, Initial residual = 0.0175255, Final residual = 9.99842e-07, No Iterations 25
GAMG:  Solving for p, Initial residual = 0.0164745, Final residual = 7.39443e-07, No Iterations 20
time step continuity errors : sum local = 3.03592e-08, global = 2.79913e-18, cumulative = 1.0828e-16
ExecutionTime = 0.66 s  ClockTime = 0 s

Time = 41

smoothSolver:  Solving for Ux, Initial residual = 0.00726087, Final residual = 8.701e-07, No Iterations 21
smoothSolver:  Solving for Uy, Initial residual = 0.018037, Final residual = 7.10075e-07, No Iterations 26
GAMG:  Solving for p, Initial residual = 0.016446, Final residual = 7.39461e-07, No Iterations 21
time step continuity errors : sum local = 3.00531e-08, global = 1.71364e-18, cumulative = 1.09994e-16
ExecutionTime = 0.68 s  ClockTime = 0 s

Time = 42

smoothSolver:  Solving for Ux, Initial residual = 0.0070487, Final residual = 8.28905e-07, No Iterations 21
smoothSolver:  Solving for Uy, Initial residual = 0.0185569, Final residual = 7.23252e-07, No Iterations 26
GAMG:  Solving for p, Initial residual = 0.0164585, Final residual = 9.15388e-07, No Iterations 21
time step continuity errors : sum local = 3.69248e-08, global = 6.57224e-18, cumulative = 1.16566e-16
ExecutionTime = 0.69 s  ClockTime = 0 s

Time = 43

smoothSolver:  Solving for Ux, Initial residual = 0.00684453, Final residual = 7.89675e-07, No Iterations 21
smoothSolver:  Solving for Uy, Initial residual = 0.0190356, Final residual = 7.31809e-07, No Iterations 26
GAMG:  Solving for p, Initial residual = 0.0164811, Final residual = 6.7154e-07, No Iterations 22
time step continuity errors : sum local = 2.69706e-08, global = -7.15025e-18, cumulative = 1.09416e-16
ExecutionTime = 0.71 s  ClockTime = 1 s

Time = 44

smoothSolver:  Solving for Ux, Initial residual = 0.00664803, Final residual = 7.524e-07, No Iterations 21
smoothSolver:  Solving for Uy, Initial residual = 0.0194583, Final residual = 7.38835e-07, No Iterations 26
GAMG:  Solving for p, Initial residual = 0.016503, Final residual = 7.24084e-07, No Iterations 22
time step continuity errors : sum local = 2.88235e-08, global = 5.62824e-19, cumulative = 1.09978e-16
ExecutionTime = 0.72 s  ClockTime = 1 s

Time = 45

smoothSolver:  Solving for Ux, Initial residual = 0.0064589, Final residual = 7.17092e-07, No Iterations 21
smoothSolver:  Solving for Uy, Initial residual = 0.0198292, Final residual = 7.42107e-07, No Iterations 26
GAMG:  Solving for p, Initial residual = 0.016538, Final residual = 7.54804e-07, No Iterations 22
time step continuity errors : sum local = 2.97648e-08, global = -2.92589e-18, cumulative = 1.07053e-16
ExecutionTime = 0.73 s  ClockTime = 1 s

Time = 46

smoothSolver:  Solving for Ux, Initial residual = 0.00627691, Final residual = 9.96793e-07, No Iterations 20
smoothSolver:  Solving for Uy, Initial residual = 0.020108, Final residual = 7.41616e-07, No Iterations 26
GAMG:  Solving for p, Initial residual = 0.0165507, Final residual = 7.71883e-07, No Iterations 22
time step continuity errors : sum local = 3.01408e-08, global = -7.26442e-18, cumulative = 9.97882e-17
ExecutionTime = 0.75 s  ClockTime = 1 s

Time = 47

smoothSolver:  Solving for Ux, Initial residual = 0.00610176, Final residual = 9.51001e-07, No Iterations 20
smoothSolver:  Solving for Uy, Initial residual = 0.0203076, Final residual = 7.38819e-07, No Iterations 26
GAMG:  Solving for p, Initial residual = 0.0165286, Final residual = 7.78723e-07, No Iterations 22
time step continuity errors : sum local = 3.01009e-08, global = -6.72028e-18, cumulative = 9.30679e-17
ExecutionTime = 0.76 s  ClockTime = 1 s

Time = 48

smoothSolver:  Solving for Ux, Initial residual = 0.00593327, Final residual = 9.07816e-07, No Iterations 20
smoothSolver:  Solving for Uy, Initial residual = 0.0204163, Final residual = 7.30989e-07, No Iterations 26
GAMG:  Solving for p, Initial residual = 0.0164684, Final residual = 7.76451e-07, No Iterations 22
time step continuity errors : sum local = 2.97052e-08, global = -3.95583e-18, cumulative = 8.91121e-17
ExecutionTime = 0.78 s  ClockTime = 1 s

Time = 49

smoothSolver:  Solving for Ux, Initial residual = 0.00577125, Final residual = 8.67214e-07, No Iterations 20
smoothSolver:  Solving for Uy, Initial residual = 0.0204176, Final residual = 7.21145e-07, No Iterations 26
GAMG:  Solving for p, Initial residual = 0.0163444, Final residual = 7.66068e-07, No Iterations 22
time step continuity errors : sum local = 2.90063e-08, global = 1.24693e-17, cumulative = 1.01581e-16
ExecutionTime = 0.79 s  ClockTime = 1 s

Time = 50

smoothSolver:  Solving for Ux, Initial residual = 0.00561553, Final residual = 8.29121e-07, No Iterations 20
smoothSolver:  Solving for Uy, Initial residual = 0.020325, Final residual = 7.06813e-07, No Iterations 26
GAMG:  Solving for p, Initial residual = 0.0161487, Final residual = 7.49351e-07, No Iterations 22
time step continuity errors : sum local = 2.80811e-08, global = 1.10213e-17, cumulative = 1.12603e-16
ExecutionTime = 0.81 s  ClockTime = 1 s

Time = 51

smoothSolver:  Solving for Ux, Initial residual = 0.00546594, Final residual = 7.93426e-07, No Iterations 20
smoothSolver:  Solving for Uy, Initial residual = 0.0201202, Final residual = 9.94755e-07, No Iterations 25
GAMG:  Solving for p, Initial residual = 0.0158897, Final residual = 7.26974e-07, No Iterations 22
time step continuity errors : sum local = 2.69653e-08, global = -6.58524e-18, cumulative = 1.06017e-16
ExecutionTime = 0.82 s  ClockTime = 1 s

Time = 52

smoothSolver:  Solving for Ux, Initial residual = 0.00532242, Final residual = 7.59999e-07, No Iterations 20
smoothSolver:  Solving for Uy, Initial residual = 0.0198083, Final residual = 9.6871e-07, No Iterations 25
GAMG:  Solving for p, Initial residual = 0.0155616, Final residual = 6.97544e-07, No Iterations 22
time step continuity errors : sum local = 2.56191e-08, global = 9.24598e-18, cumulative = 1.15263e-16
ExecutionTime = 0.84 s  ClockTime = 1 s

Time = 53

smoothSolver:  Solving for Ux, Initial residual = 0.00518468, Final residual = 7.28779e-07, No Iterations 20
smoothSolver:  Solving for Uy, Initial residual = 0.0194005, Final residual = 9.37415e-07, No Iterations 25
GAMG:  Solving for p, Initial residual = 0.0151694, Final residual = 6.60904e-07, No Iterations 22
time step continuity errors : sum local = 2.40463e-08, global = -6.4373e-18, cumulative = 1.08826e-16
ExecutionTime = 0.85 s  ClockTime = 1 s

Time = 54

smoothSolver:  Solving for Ux, Initial residual = 0.00505288, Final residual = 6.99657e-07, No Iterations 20
smoothSolver:  Solving for Uy, Initial residual = 0.0188849, Final residual = 9.05045e-07, No Iterations 25
GAMG:  Solving for p, Initial residual = 0.0147218, Final residual = 9.43277e-07, No Iterations 21
time step continuity errors : sum local = 3.38768e-08, global = -3.49047e-18, cumulative = 1.05336e-16
ExecutionTime = 0.87 s  ClockTime = 1 s

Time = 55

smoothSolver:  Solving for Ux, Initial residual = 0.0049265, Final residual = 9.84914e-07, No Iterations 19
smoothSolver:  Solving for Uy, Initial residual = 0.0182641, Final residual = 8.6932e-07, No Iterations 25
GAMG:  Solving for p, Initial residual = 0.0142184, Final residual = 8.60676e-07, No Iterations 21
time step continuity errors : sum local = 3.06613e-08, global = -3.55285e-18, cumulative = 1.01783e-16
ExecutionTime = 0.89 s  ClockTime = 1 s

Time = 56

smoothSolver:  Solving for Ux, Initial residual = 0.00480535, Final residual = 9.4789e-07, No Iterations 19
smoothSolver:  Solving for Uy, Initial residual = 0.0175522, Final residual = 8.30518e-07, No Iterations 25
GAMG:  Solving for p, Initial residual = 0.0136745, Final residual = 7.51547e-07, No Iterations 21
time step continuity errors : sum local = 2.65781e-08, global = 1.49098e-18, cumulative = 1.03274e-16
ExecutionTime = 0.9 s  ClockTime = 1 s

Time = 57

smoothSolver:  Solving for Ux, Initial residual = 0.00468932, Final residual = 9.13397e-07, No Iterations 19
smoothSolver:  Solving for Uy, Initial residual = 0.0167507, Final residual = 7.91569e-07, No Iterations 25
GAMG:  Solving for p, Initial residual = 0.0130783, Final residual = 8.85152e-07, No Iterations 20
time step continuity errors : sum local = 3.12325e-08, global = 1.45644e-17, cumulative = 1.17838e-16
ExecutionTime = 0.92 s  ClockTime = 1 s

Time = 58

smoothSolver:  Solving for Ux, Initial residual = 0.00457818, Final residual = 8.81279e-07, No Iterations 19
smoothSolver:  Solving for Uy, Initial residual = 0.0158699, Final residual = 7.49863e-07, No Iterations 25
GAMG:  Solving for p, Initial residual = 0.0124538, Final residual = 8.60239e-07, No Iterations 18
time step continuity errors : sum local = 3.00044e-08, global = -2.08146e-18, cumulative = 1.15757e-16
ExecutionTime = 0.93 s  ClockTime = 1 s

Time = 59

smoothSolver:  Solving for Ux, Initial residual = 0.00447167, Final residual = 8.51391e-07, No Iterations 19
smoothSolver:  Solving for Uy, Initial residual = 0.0149237, Final residual = 7.07455e-07, No Iterations 25
GAMG:  Solving for p, Initial residual = 0.0118193, Final residual = 7.01244e-07, No Iterations 20
time step continuity errors : sum local = 2.44201e-08, global = 7.93135e-18, cumulative = 1.23688e-16
ExecutionTime = 0.94 s  ClockTime = 1 s

Time = 60

smoothSolver:  Solving for Ux, Initial residual = 0.00436964, Final residual = 8.23528e-07, No Iterations 19
smoothSolver:  Solving for Uy, Initial residual = 0.0139325, Final residual = 9.62243e-07, No Iterations 24
GAMG:  Solving for p, Initial residual = 0.0111748, Final residual = 8.96656e-07, No Iterations 19
time step continuity errors : sum local = 3.12678e-08, global = -4.57999e-18, cumulative = 1.19108e-16
ExecutionTime = 0.96 s  ClockTime = 1 s

Time = 61

smoothSolver:  Solving for Ux, Initial residual = 0.00427184, Final residual = 7.97504e-07, No Iterations 19
smoothSolver:  Solving for Uy, Initial residual = 0.0129435, Final residual = 8.97616e-07, No Iterations 24
GAMG:  Solving for p, Initial residual = 0.0105687, Final residual = 9.30918e-07, No Iterations 18
time step continuity errors : sum local = 3.22522e-08, global = 4.71988e-18, cumulative = 1.23828e-16
ExecutionTime = 0.97 s  ClockTime = 1 s

Time = 62

smoothSolver:  Solving for Ux, Initial residual = 0.00417817, Final residual = 7.73147e-07, No Iterations 19
smoothSolver:  Solving for Uy, Initial residual = 0.012, Final residual = 8.32763e-07, No Iterations 24
GAMG:  Solving for p, Initial residual = 0.0100178, Final residual = 6.85431e-07, No Iterations 18
time step continuity errors : sum local = 2.37977e-08, global = -7.50115e-18, cumulative = 1.16327e-16
ExecutionTime = 0.98 s  ClockTime = 1 s

Time = 63

smoothSolver:  Solving for Ux, Initial residual = 0.00408848, Final residual = 7.50276e-07, No Iterations 19
smoothSolver:  Solving for Uy, Initial residual = 0.0111019, Final residual = 7.66745e-07, No Iterations 24
GAMG:  Solving for p, Initial residual = 0.00953237, Final residual = 7.51449e-07, No Iterations 17
time step continuity errors : sum local = 2.59054e-08, global = -2.9666e-18, cumulative = 1.1336e-16
ExecutionTime = 0.99 s  ClockTime = 1 s

Time = 64

smoothSolver:  Solving for Ux, Initial residual = 0.00400261, Final residual = 7.28735e-07, No Iterations 19
smoothSolver:  Solving for Uy, Initial residual = 0.0102288, Final residual = 7.00879e-07, No Iterations 24
GAMG:  Solving for p, Initial residual = 0.00908463, Final residual = 7.16263e-07, No Iterations 17
time step continuity errors : sum local = 2.4741e-08, global = 3.69772e-18, cumulative = 1.17058e-16
ExecutionTime = 1.01 s  ClockTime = 1 s

Time = 65

smoothSolver:  Solving for Ux, Initial residual = 0.00392012, Final residual = 7.0837e-07, No Iterations 19
smoothSolver:  Solving for Uy, Initial residual = 0.00939465, Final residual = 9.21814e-07, No Iterations 23
GAMG:  Solving for p, Initial residual = 0.00868385, Final residual = 7.38291e-07, No Iterations 17
time step continuity errors : sum local = 2.57315e-08, global = 4.35208e-19, cumulative = 1.17493e-16
ExecutionTime = 1.02 s  ClockTime = 1 s

Time = 66

smoothSolver:  Solving for Ux, Initial residual = 0.00384082, Final residual = 6.89028e-07, No Iterations 19
smoothSolver:  Solving for Uy, Initial residual = 0.00859948, Final residual = 8.29074e-07, No Iterations 23
GAMG:  Solving for p, Initial residual = 0.00831932, Final residual = 7.63319e-07, No Iterations 17
time step continuity errors : sum local = 2.67215e-08, global = -2.88005e-19, cumulative = 1.17205e-16
ExecutionTime = 1.03 s  ClockTime = 1 s

Time = 67

smoothSolver:  Solving for Ux, Initial residual = 0.00376447, Final residual = 9.85115e-07, No Iterations 18
smoothSolver:  Solving for Uy, Initial residual = 0.00785884, Final residual = 7.38004e-07, No Iterations 23
GAMG:  Solving for p, Initial residual = 0.00797804, Final residual = 7.04076e-07, No Iterations 17
time step continuity errors : sum local = 2.47405e-08, global = 6.91096e-18, cumulative = 1.24116e-16
ExecutionTime = 1.04 s  ClockTime = 1 s

Time = 68

smoothSolver:  Solving for Ux, Initial residual = 0.0036909, Final residual = 9.5909e-07, No Iterations 18
smoothSolver:  Solving for Uy, Initial residual = 0.00719039, Final residual = 9.52316e-07, No Iterations 22
GAMG:  Solving for p, Initial residual = 0.00765639, Final residual = 7.95217e-07, No Iterations 15
time step continuity errors : sum local = 2.8038e-08, global = -1.34632e-17, cumulative = 1.10653e-16
ExecutionTime = 1.06 s  ClockTime = 1 s

Time = 69

smoothSolver:  Solving for Ux, Initial residual = 0.0036199, Final residual = 9.34066e-07, No Iterations 18
smoothSolver:  Solving for Uy, Initial residual = 0.00663049, Final residual = 8.39183e-07, No Iterations 22
GAMG:  Solving for p, Initial residual = 0.0073582, Final residual = 9.77708e-07, No Iterations 16
time step continuity errors : sum local = 3.46318e-08, global = -8.92936e-18, cumulative = 1.01723e-16
ExecutionTime = 1.07 s  ClockTime = 1 s

Time = 70

smoothSolver:  Solving for Ux, Initial residual = 0.0035515, Final residual = 9.09902e-07, No Iterations 18
smoothSolver:  Solving for Uy, Initial residual = 0.0061585, Final residual = 7.35192e-07, No Iterations 22
GAMG:  Solving for p, Initial residual = 0.0070799, Final residual = 7.01927e-07, No Iterations 17
time step continuity errors : sum local = 2.486e-08, global = -1.78223e-17, cumulative = 8.39011e-17
ExecutionTime = 1.08 s  ClockTime = 1 s

Time = 71

smoothSolver:  Solving for Ux, Initial residual = 0.00348547, Final residual = 8.8648e-07, No Iterations 18
smoothSolver:  Solving for Uy, Initial residual = 0.00572862, Final residual = 9.50753e-07, No Iterations 21
GAMG:  Solving for p, Initial residual = 0.00683652, Final residual = 9.73731e-07, No Iterations 16
time step continuity errors : sum local = 3.47942e-08, global = -1.93464e-17, cumulative = 6.45547e-17
ExecutionTime = 1.09 s  ClockTime = 1 s

Time = 72

smoothSolver:  Solving for Ux, Initial residual = 0.00342163, Final residual = 8.63702e-07, No Iterations 18
smoothSolver:  Solving for Uy, Initial residual = 0.00533151, Final residual = 8.42429e-07, No Iterations 21
GAMG:  Solving for p, Initial residual = 0.00662763, Final residual = 8.68657e-07, No Iterations 16
time step continuity errors : sum local = 3.11857e-08, global = -8.77972e-19, cumulative = 6.36767e-17
ExecutionTime = 1.11 s  ClockTime = 1 s

Time = 73

smoothSolver:  Solving for Ux, Initial residual = 0.00335987, Final residual = 8.41482e-07, No Iterations 18
smoothSolver:  Solving for Uy, Initial residual = 0.00497419, Final residual = 7.52412e-07, No Iterations 21
GAMG:  Solving for p, Initial residual = 0.00644816, Final residual = 6.73055e-07, No Iterations 16
time step continuity errors : sum local = 2.42673e-08, global = 4.87116e-18, cumulative = 6.85479e-17
ExecutionTime = 1.12 s  ClockTime = 1 s

Time = 74

smoothSolver:  Solving for Ux, Initial residual = 0.00330009, Final residual = 8.19701e-07, No Iterations 18
smoothSolver:  Solving for Uy, Initial residual = 0.00471841, Final residual = 6.84728e-07, No Iterations 21
GAMG:  Solving for p, Initial residual = 0.00627525, Final residual = 8.8745e-07, No Iterations 15
time step continuity errors : sum local = 3.21628e-08, global = 1.43359e-17, cumulative = 8.28838e-17
ExecutionTime = 1.13 s  ClockTime = 1 s

Time = 75

smoothSolver:  Solving for Ux, Initial residual = 0.00324214, Final residual = 7.98301e-07, No Iterations 18
smoothSolver:  Solving for Uy, Initial residual = 0.00458095, Final residual = 9.45243e-07, No Iterations 20
GAMG:  Solving for p, Initial residual = 0.00610917, Final residual = 9.49724e-07, No Iterations 15
time step continuity errors : sum local = 3.45854e-08, global = -1.32523e-17, cumulative = 6.96315e-17
ExecutionTime = 1.14 s  ClockTime = 1 s

Time = 76

smoothSolver:  Solving for Ux, Initial residual = 0.0031858, Final residual = 7.77227e-07, No Iterations 18
smoothSolver:  Solving for Uy, Initial residual = 0.0045499, Final residual = 9.17272e-07, No Iterations 20
GAMG:  Solving for p, Initial residual = 0.00595818, Final residual = 9.61849e-07, No Iterations 15
time step continuity errors : sum local = 3.51929e-08, global = 1.05607e-17, cumulative = 8.01922e-17
ExecutionTime = 1.15 s  ClockTime = 1 s

Time = 77

smoothSolver:  Solving for Ux, Initial residual = 0.00313082, Final residual = 7.5646e-07, No Iterations 18
smoothSolver:  Solving for Uy, Initial residual = 0.0046299, Final residual = 9.47173e-07, No Iterations 20
GAMG:  Solving for p, Initial residual = 0.00582484, Final residual = 8.32451e-07, No Iterations 15
time step continuity errors : sum local = 3.05833e-08, global = 1.1555e-17, cumulative = 9.17472e-17
ExecutionTime = 1.16 s  ClockTime = 1 s

Time = 78

smoothSolver:  Solving for Ux, Initial residual = 0.00307708, Final residual = 7.35983e-07, No Iterations 18
smoothSolver:  Solving for Uy, Initial residual = 0.00479148, Final residual = 7.06386e-07, No Iterations 21
GAMG:  Solving for p, Initial residual = 0.00573382, Final residual = 8.29616e-07, No Iterations 14
time step continuity errors : sum local = 3.03631e-08, global = -4.33789e-20, cumulative = 9.17038e-17
ExecutionTime = 1.18 s  ClockTime = 1 s

Time = 79

smoothSolver:  Solving for Ux, Initial residual = 0.00302455, Final residual = 7.15792e-07, No Iterations 18
smoothSolver:  Solving for Uy, Initial residual = 0.00501902, Final residual = 7.85531e-07, No Iterations 21
GAMG:  Solving for p, Initial residual = 0.00570526, Final residual = 8.39118e-07, No Iterations 14
time step continuity errors : sum local = 3.10256e-08, global = 1.75624e-17, cumulative = 1.09266e-16
ExecutionTime = 1.19 s  ClockTime = 1 s

Time = 80

smoothSolver:  Solving for Ux, Initial residual = 0.00297312, Final residual = 6.95904e-07, No Iterations 18
smoothSolver:  Solving for Uy, Initial residual = 0.00528094, Final residual = 8.71873e-07, No Iterations 21
GAMG:  Solving for p, Initial residual = 0.00571701, Final residual = 8.33034e-07, No Iterations 15
time step continuity errors : sum local = 3.09299e-08, global = 4.85609e-18, cumulative = 1.14122e-16
ExecutionTime = 1.2 s  ClockTime = 1 s

Time = 81

smoothSolver:  Solving for Ux, Initial residual = 0.00292273, Final residual = 9.99548e-07, No Iterations 17
smoothSolver:  Solving for Uy, Initial residual = 0.00556096, Final residual = 9.55761e-07, No Iterations 21
GAMG:  Solving for p, Initial residual = 0.00576009, Final residual = 7.91635e-07, No Iterations 16
time step continuity errors : sum local = 2.96851e-08, global = -9.46522e-18, cumulative = 1.04657e-16
ExecutionTime = 1.22 s  ClockTime = 1 s

Time = 82

smoothSolver:  Solving for Ux, Initial residual = 0.00287335, Final residual = 9.71406e-07, No Iterations 17
smoothSolver:  Solving for Uy, Initial residual = 0.00585068, Final residual = 7.08827e-07, No Iterations 22
GAMG:  Solving for p, Initial residual = 0.00582667, Final residual = 6.87273e-07, No Iterations 17
time step continuity errors : sum local = 2.57613e-08, global = 1.02144e-18, cumulative = 1.05679e-16
ExecutionTime = 1.23 s  ClockTime = 1 s

Time = 83

smoothSolver:  Solving for Ux, Initial residual = 0.00282494, Final residual = 9.43792e-07, No Iterations 17
smoothSolver:  Solving for Uy, Initial residual = 0.00613105, Final residual = 7.56197e-07, No Iterations 22
GAMG:  Solving for p, Initial residual = 0.00589966, Final residual = 9.21097e-07, No Iterations 16
time step continuity errors : sum local = 3.48615e-08, global = 8.47708e-19, cumulative = 1.06526e-16
ExecutionTime = 1.24 s  ClockTime = 1 s

Time = 84

smoothSolver:  Solving for Ux, Initial residual = 0.00277747, Final residual = 9.1674e-07, No Iterations 17
smoothSolver:  Solving for Uy, Initial residual = 0.00639203, Final residual = 7.9617e-07, No Iterations 22
GAMG:  Solving for p, Initial residual = 0.00596521, Final residual = 7.81785e-07, No Iterations 17
time step continuity errors : sum local = 2.96914e-08, global = -1.69869e-17, cumulative = 8.95394e-17
ExecutionTime = 1.25 s  ClockTime = 1 s

Time = 85

smoothSolver:  Solving for Ux, Initial residual = 0.00273091, Final residual = 8.90291e-07, No Iterations 17
smoothSolver:  Solving for Uy, Initial residual = 0.00662614, Final residual = 8.29466e-07, No Iterations 22
GAMG:  Solving for p, Initial residual = 0.00602084, Final residual = 9.66613e-07, No Iterations 17
time step continuity errors : sum local = 3.68562e-08, global = -1.02226e-18, cumulative = 8.85171e-17
ExecutionTime = 1.27 s  ClockTime = 1 s

Time = 86

smoothSolver:  Solving for Ux, Initial residual = 0.00268526, Final residual = 8.64495e-07, No Iterations 17
smoothSolver:  Solving for Uy, Initial residual = 0.00682273, Final residual = 8.54203e-07, No Iterations 22
GAMG:  Solving for p, Initial residual = 0.00606654, Final residual = 7.16598e-07, No Iterations 18
time step continuity errors : sum local = 2.72935e-08, global = -3.72458e-18, cumulative = 8.47925e-17
ExecutionTime = 1.28 s  ClockTime = 1 s

Time = 87

smoothSolver:  Solving for Ux, Initial residual = 0.00264052, Final residual = 8.39401e-07, No Iterations 17
smoothSolver:  Solving for Uy, Initial residual = 0.00697733, Final residual = 8.72022e-07, No Iterations 22
GAMG:  Solving for p, Initial residual = 0.00609932, Final residual = 7.37058e-07, No Iterations 18
time step continuity errors : sum local = 2.81772e-08, global = 2.18312e-17, cumulative = 1.06624e-16
ExecutionTime = 1.3 s  ClockTime = 1 s

Time = 88

smoothSolver:  Solving for Ux, Initial residual = 0.00259669, Final residual = 8.15046e-07, No Iterations 17
smoothSolver:  Solving for Uy, Initial residual = 0.00708525, Final residual = 8.81855e-07, No Iterations 22
GAMG:  Solving for p, Initial residual = 0.00611777, Final residual = 7.26674e-07, No Iterations 18
time step continuity errors : sum local = 2.78814e-08, global = -1.59737e-18, cumulative = 1.05026e-16
ExecutionTime = 1.31 s  ClockTime = 1 s

Time = 89

smoothSolver:  Solving for Ux, Initial residual = 0.00255376, Final residual = 7.91481e-07, No Iterations 17
smoothSolver:  Solving for Uy, Initial residual = 0.00714323, Final residual = 8.83635e-07, No Iterations 22
GAMG:  Solving for p, Initial residual = 0.00611984, Final residual = 7.01548e-07, No Iterations 18
time step continuity errors : sum local = 2.70128e-08, global = 1.04843e-17, cumulative = 1.15511e-16
ExecutionTime = 1.32 s  ClockTime = 1 s

Time = 90

smoothSolver:  Solving for Ux, Initial residual = 0.00251176, Final residual = 7.68742e-07, No Iterations 17
smoothSolver:  Solving for Uy, Initial residual = 0.00715086, Final residual = 8.79607e-07, No Iterations 22
GAMG:  Solving for p, Initial residual = 0.00610057, Final residual = 9.97841e-07, No Iterations 17
time step continuity errors : sum local = 3.87406e-08, global = 5.42724e-18, cumulative = 1.20938e-16
ExecutionTime = 1.34 s  ClockTime = 1 s

Time = 91

smoothSolver:  Solving for Ux, Initial residual = 0.00247069, Final residual = 7.46855e-07, No Iterations 17
smoothSolver:  Solving for Uy, Initial residual = 0.00710969, Final residual = 8.67841e-07, No Iterations 22
GAMG:  Solving for p, Initial residual = 0.00605687, Final residual = 9.69614e-07, No Iterations 17
time step continuity errors : sum local = 3.77721e-08, global = 1.07838e-17, cumulative = 1.31722e-16
ExecutionTime = 1.35 s  ClockTime = 1 s

Time = 92

smoothSolver:  Solving for Ux, Initial residual = 0.00243055, Final residual = 7.25844e-07, No Iterations 17
smoothSolver:  Solving for Uy, Initial residual = 0.00701985, Final residual = 8.49994e-07, No Iterations 22
GAMG:  Solving for p, Initial residual = 0.00598939, Final residual = 9.65426e-07, No Iterations 17
time step continuity errors : sum local = 3.77369e-08, global = 9.83507e-18, cumulative = 1.41557e-16
ExecutionTime = 1.36 s  ClockTime = 1 s

Time = 93

smoothSolver:  Solving for Ux, Initial residual = 0.00239135, Final residual = 7.05727e-07, No Iterations 17
smoothSolver:  Solving for Uy, Initial residual = 0.00688418, Final residual = 8.27154e-07, No Iterations 22
GAMG:  Solving for p, Initial residual = 0.00589731, Final residual = 9.81393e-07, No Iterations 17
time step continuity errors : sum local = 3.84918e-08, global = 1.69462e-18, cumulative = 1.43251e-16
ExecutionTime = 1.37 s  ClockTime = 1 s

Time = 94

smoothSolver:  Solving for Ux, Initial residual = 0.0023531, Final residual = 6.8651e-07, No Iterations 17
smoothSolver:  Solving for Uy, Initial residual = 0.0067077, Final residual = 7.9856e-07, No Iterations 22
GAMG:  Solving for p, Initial residual = 0.00578222, Final residual = 6.80785e-07, No Iterations 18
time step continuity errors : sum local = 2.6666e-08, global = -8.24863e-19, cumulative = 1.42427e-16
ExecutionTime = 1.39 s  ClockTime = 1 s

Time = 95

smoothSolver:  Solving for Ux, Initial residual = 0.0023158, Final residual = 9.9653e-07, No Iterations 16
smoothSolver:  Solving for Uy, Initial residual = 0.00649224, Final residual = 7.66516e-07, No Iterations 22
GAMG:  Solving for p, Initial residual = 0.00564647, Final residual = 6.91084e-07, No Iterations 18
time step continuity errors : sum local = 2.71618e-08, global = -7.98598e-18, cumulative = 1.34441e-16
ExecutionTime = 1.4 s  ClockTime = 1 s

Time = 96

smoothSolver:  Solving for Ux, Initial residual = 0.00227947, Final residual = 9.70767e-07, No Iterations 16
smoothSolver:  Solving for Uy, Initial residual = 0.00624523, Final residual = 7.30915e-07, No Iterations 22
GAMG:  Solving for p, Initial residual = 0.00549283, Final residual = 6.83512e-07, No Iterations 18
time step continuity errors : sum local = 2.6955e-08, global = 1.46882e-17, cumulative = 1.49129e-16
ExecutionTime = 1.41 s  ClockTime = 1 s

Time = 97

smoothSolver:  Solving for Ux, Initial residual = 0.00224407, Final residual = 9.46281e-07, No Iterations 16
smoothSolver:  Solving for Uy, Initial residual = 0.00597323, Final residual = 6.92142e-07, No Iterations 22
GAMG:  Solving for p, Initial residual = 0.00532181, Final residual = 9.72811e-07, No Iterations 17
time step continuity errors : sum local = 3.86767e-08, global = -4.1479e-18, cumulative = 1.44981e-16
ExecutionTime = 1.42 s  ClockTime = 1 s

Time = 98

smoothSolver:  Solving for Ux, Initial residual = 0.00220961, Final residual = 9.23036e-07, No Iterations 16
smoothSolver:  Solving for Uy, Initial residual = 0.005679, Final residual = 9.53302e-07, No Iterations 21
GAMG:  Solving for p, Initial residual = 0.00514058, Final residual = 9.003e-07, No Iterations 17
time step continuity errors : sum local = 3.59105e-08, global = -7.61507e-18, cumulative = 1.37366e-16
ExecutionTime = 1.44 s  ClockTime = 1 s

Time = 99

smoothSolver:  Solving for Ux, Initial residual = 0.00217607, Final residual = 9.01002e-07, No Iterations 16
smoothSolver:  Solving for Uy, Initial residual = 0.00536748, Final residual = 8.94511e-07, No Iterations 21
GAMG:  Solving for p, Initial residual = 0.00495193, Final residual = 7.88634e-07, No Iterations 17
time step continuity errors : sum local = 3.15568e-08, global = 3.87808e-18, cumulative = 1.41244e-16
ExecutionTime = 1.45 s  ClockTime = 1 s

Time = 100

smoothSolver:  Solving for Ux, Initial residual = 0.00214343, Final residual = 8.80111e-07, No Iterations 16
smoothSolver:  Solving for Uy, Initial residual = 0.00504751, Final residual = 8.34496e-07, No Iterations 21
GAMG:  Solving for p, Initial residual = 0.00475775, Final residual = 9.51151e-07, No Iterations 16
time step continuity errors : sum local = 3.79981e-08, global = 1.04134e-17, cumulative = 1.51657e-16
ExecutionTime = 1.47 s  ClockTime = 1 s

Time = 101

smoothSolver:  Solving for Ux, Initial residual = 0.00211167, Final residual = 8.60297e-07, No Iterations 16
smoothSolver:  Solving for Uy, Initial residual = 0.00472269, Final residual = 7.76122e-07, No Iterations 21
GAMG:  Solving for p, Initial residual = 0.00456664, Final residual = 7.36912e-07, No Iterations 16
time step continuity errors : sum local = 2.96769e-08, global = -1.67648e-18, cumulative = 1.49981e-16
ExecutionTime = 1.49 s  ClockTime = 1 s

Time = 102

smoothSolver:  Solving for Ux, Initial residual = 0.00208075, Final residual = 8.41483e-07, No Iterations 16
smoothSolver:  Solving for Uy, Initial residual = 0.00440206, Final residual = 7.20781e-07, No Iterations 21
GAMG:  Solving for p, Initial residual = 0.00438119, Final residual = 7.5719e-07, No Iterations 16
time step continuity errors : sum local = 3.0597e-08, global = 5.43475e-19, cumulative = 1.50524e-16
ExecutionTime = 1.5 s  ClockTime = 1 s

Time = 103

smoothSolver:  Solving for Ux, Initial residual = 0.00205067, Final residual = 8.23592e-07, No Iterations 16
smoothSolver:  Solving for Uy, Initial residual = 0.00409127, Final residual = 9.82094e-07, No Iterations 20
GAMG:  Solving for p, Initial residual = 0.00420248, Final residual = 9.07485e-07, No Iterations 15
time step continuity errors : sum local = 3.66079e-08, global = -1.175e-17, cumulative = 1.38774e-16
ExecutionTime = 1.51 s  ClockTime = 1 s

Time = 104

smoothSolver:  Solving for Ux, Initial residual = 0.00202137, Final residual = 8.06552e-07, No Iterations 16
smoothSolver:  Solving for Uy, Initial residual = 0.00379427, Final residual = 9.08996e-07, No Iterations 20
GAMG:  Solving for p, Initial residual = 0.00403106, Final residual = 7.8516e-07, No Iterations 14
time step continuity errors : sum local = 3.17225e-08, global = -1.32015e-17, cumulative = 1.25573e-16
ExecutionTime = 1.52 s  ClockTime = 1 s

Time = 105

smoothSolver:  Solving for Ux, Initial residual = 0.00199283, Final residual = 7.90275e-07, No Iterations 16
smoothSolver:  Solving for Uy, Initial residual = 0.00351661, Final residual = 8.40052e-07, No Iterations 20
GAMG:  Solving for p, Initial residual = 0.0038712, Final residual = 7.54872e-07, No Iterations 14
time step continuity errors : sum local = 3.07891e-08, global = -7.03656e-18, cumulative = 1.18536e-16
ExecutionTime = 1.53 s  ClockTime = 1 s

Time = 106

smoothSolver:  Solving for Ux, Initial residual = 0.00196502, Final residual = 7.74676e-07, No Iterations 16
smoothSolver:  Solving for Uy, Initial residual = 0.00326406, Final residual = 7.76683e-07, No Iterations 20
GAMG:  Solving for p, Initial residual = 0.00372332, Final residual = 9.91601e-07, No Iterations 13
time step continuity errors : sum local = 4.03602e-08, global = -1.73283e-17, cumulative = 1.01208e-16
ExecutionTime = 1.54 s  ClockTime = 1 s

Time = 107

smoothSolver:  Solving for Ux, Initial residual = 0.00193791, Final residual = 7.59684e-07, No Iterations 16
smoothSolver:  Solving for Uy, Initial residual = 0.00303943, Final residual = 7.18789e-07, No Iterations 20
GAMG:  Solving for p, Initial residual = 0.00358083, Final residual = 7.42789e-07, No Iterations 13
time step continuity errors : sum local = 3.04094e-08, global = -4.06934e-18, cumulative = 9.71385e-17
ExecutionTime = 1.56 s  ClockTime = 1 s

Time = 108

smoothSolver:  Solving for Ux, Initial residual = 0.00191146, Final residual = 7.45222e-07, No Iterations 16
smoothSolver:  Solving for Uy, Initial residual = 0.0028449, Final residual = 9.86744e-07, No Iterations 19
GAMG:  Solving for p, Initial residual = 0.00344649, Final residual = 6.25171e-07, No Iterations 13
time step continuity errors : sum local = 2.55231e-08, global = 2.54911e-17, cumulative = 1.2263e-16
ExecutionTime = 1.57 s  ClockTime = 1 s

Time = 109

smoothSolver:  Solving for Ux, Initial residual = 0.00188566, Final residual = 7.31219e-07, No Iterations 16
smoothSolver:  Solving for Uy, Initial residual = 0.00268048, Final residual = 9.19857e-07, No Iterations 19
GAMG:  Solving for p, Initial residual = 0.00331932, Final residual = 9.12646e-07, No Iterations 12
time step continuity errors : sum local = 3.76288e-08, global = 1.98921e-17, cumulative = 1.42522e-16
ExecutionTime = 1.58 s  ClockTime = 1 s

Time = 110

smoothSolver:  Solving for Ux, Initial residual = 0.00186046, Final residual = 7.17607e-07, No Iterations 16
smoothSolver:  Solving for Uy, Initial residual = 0.00254703, Final residual = 8.64645e-07, No Iterations 19
GAMG:  Solving for p, Initial residual = 0.00320103, Final residual = 8.43902e-07, No Iterations 12
time step continuity errors : sum local = 3.4909e-08, global = 7.35541e-19, cumulative = 1.43257e-16
ExecutionTime = 1.59 s  ClockTime = 1 s

Time = 111

smoothSolver:  Solving for Ux, Initial residual = 0.00183583, Final residual = 7.04328e-07, No Iterations 16
smoothSolver:  Solving for Uy, Initial residual = 0.00245103, Final residual = 8.21133e-07, No Iterations 19
GAMG:  Solving for p, Initial residual = 0.00309075, Final residual = 8.42943e-07, No Iterations 12
time step continuity errors : sum local = 3.48695e-08, global = 2.0524e-17, cumulative = 1.63781e-16
ExecutionTime = 1.6 s  ClockTime = 1 s

Time = 112

smoothSolver:  Solving for Ux, Initial residual = 0.00181173, Final residual = 6.9133e-07, No Iterations 16
smoothSolver:  Solving for Uy, Initial residual = 0.00238879, Final residual = 7.91199e-07, No Iterations 19
GAMG:  Solving for p, Initial residual = 0.00299, Final residual = 8.28966e-07, No Iterations 12
time step continuity errors : sum local = 3.45281e-08, global = -1.35574e-17, cumulative = 1.50224e-16
ExecutionTime = 1.61 s  ClockTime = 1 s

Time = 113

smoothSolver:  Solving for Ux, Initial residual = 0.00178815, Final residual = 6.78568e-07, No Iterations 16
smoothSolver:  Solving for Uy, Initial residual = 0.00235686, Final residual = 7.73569e-07, No Iterations 19
GAMG:  Solving for p, Initial residual = 0.00290052, Final residual = 6.78746e-07, No Iterations 13
time step continuity errors : sum local = 2.82343e-08, global = -1.22644e-17, cumulative = 1.37959e-16
ExecutionTime = 1.62 s  ClockTime = 1 s

Time = 114

smoothSolver:  Solving for Ux, Initial residual = 0.00176504, Final residual = 6.66011e-07, No Iterations 16
smoothSolver:  Solving for Uy, Initial residual = 0.00235188, Final residual = 7.6633e-07, No Iterations 19
GAMG:  Solving for p, Initial residual = 0.00282461, Final residual = 7.50566e-07, No Iterations 13
time step continuity errors : sum local = 3.13297e-08, global = 3.01565e-17, cumulative = 1.68116e-16
ExecutionTime = 1.63 s  ClockTime = 1 s

Time = 115

smoothSolver:  Solving for Ux, Initial residual = 0.00174237, Final residual = 9.8159e-07, No Iterations 15
smoothSolver:  Solving for Uy, Initial residual = 0.00236969, Final residual = 7.68413e-07, No Iterations 19
GAMG:  Solving for p, Initial residual = 0.0027646, Final residual = 6.48697e-07, No Iterations 13
time step continuity errors : sum local = 2.71273e-08, global = 9.61173e-18, cumulative = 1.77728e-16
ExecutionTime = 1.64 s  ClockTime = 1 s

Time = 116

smoothSolver:  Solving for Ux, Initial residual = 0.00172012, Final residual = 9.63416e-07, No Iterations 15
smoothSolver:  Solving for Uy, Initial residual = 0.00240673, Final residual = 7.79932e-07, No Iterations 19
GAMG:  Solving for p, Initial residual = 0.00273749, Final residual = 7.06092e-07, No Iterations 13
time step continuity errors : sum local = 2.9684e-08, global = 3.36151e-17, cumulative = 2.11343e-16
ExecutionTime = 1.65 s  ClockTime = 1 s

Time = 117

smoothSolver:  Solving for Ux, Initial residual = 0.00169825, Final residual = 9.45478e-07, No Iterations 15
smoothSolver:  Solving for Uy, Initial residual = 0.00245878, Final residual = 7.99407e-07, No Iterations 19
GAMG:  Solving for p, Initial residual = 0.00273362, Final residual = 8.09831e-07, No Iterations 14
time step continuity errors : sum local = 3.42427e-08, global = 8.89817e-18, cumulative = 2.20241e-16
ExecutionTime = 1.66 s  ClockTime = 1 s

Time = 118

smoothSolver:  Solving for Ux, Initial residual = 0.00167674, Final residual = 9.27772e-07, No Iterations 15
smoothSolver:  Solving for Uy, Initial residual = 0.00251973, Final residual = 8.25247e-07, No Iterations 19
GAMG:  Solving for p, Initial residual = 0.00273631, Final residual = 9.87335e-07, No Iterations 14
time step continuity errors : sum local = 4.18489e-08, global = 4.13716e-20, cumulative = 2.20282e-16
ExecutionTime = 1.68 s  ClockTime = 1 s

Time = 119

smoothSolver:  Solving for Ux, Initial residual = 0.00165558, Final residual = 9.1031e-07, No Iterations 15
smoothSolver:  Solving for Uy, Initial residual = 0.00258594, Final residual = 8.55026e-07, No Iterations 19
GAMG:  Solving for p, Initial residual = 0.00274261, Final residual = 7.27406e-07, No Iterations 15
time step continuity errors : sum local = 3.07358e-08, global = 2.47446e-18, cumulative = 2.22757e-16
ExecutionTime = 1.69 s  ClockTime = 2 s

Time = 120

smoothSolver:  Solving for Ux, Initial residual = 0.00163476, Final residual = 8.9311e-07, No Iterations 15
smoothSolver:  Solving for Uy, Initial residual = 0.00265322, Final residual = 8.85719e-07, No Iterations 19
GAMG:  Solving for p, Initial residual = 0.00275107, Final residual = 7.36002e-07, No Iterations 15
time step continuity errors : sum local = 3.11838e-08, global = 1.15e-17, cumulative = 2.34257e-16
ExecutionTime = 1.7 s  ClockTime = 2 s

Time = 121

smoothSolver:  Solving for Ux, Initial residual = 0.00161428, Final residual = 8.76187e-07, No Iterations 15
smoothSolver:  Solving for Uy, Initial residual = 0.00271786, Final residual = 9.14537e-07, No Iterations 19
GAMG:  Solving for p, Initial residual = 0.0027592, Final residual = 9.95144e-07, No Iterations 14
time step continuity errors : sum local = 4.25423e-08, global = 1.31629e-17, cumulative = 2.4742e-16
ExecutionTime = 1.71 s  ClockTime = 2 s

Time = 122

smoothSolver:  Solving for Ux, Initial residual = 0.00159413, Final residual = 8.59565e-07, No Iterations 15
smoothSolver:  Solving for Uy, Initial residual = 0.00277549, Final residual = 9.3921e-07, No Iterations 19
GAMG:  Solving for p, Initial residual = 0.0027659, Final residual = 8.60582e-07, No Iterations 14
time step continuity errors : sum local = 3.66096e-08, global = -9.28283e-18, cumulative = 2.38137e-16
ExecutionTime = 1.73 s  ClockTime = 2 s

Time = 123

smoothSolver:  Solving for Ux, Initial residual = 0.0015743, Final residual = 8.43272e-07, No Iterations 15
smoothSolver:  Solving for Uy, Initial residual = 0.00282226, Final residual = 9.58541e-07, No Iterations 19
GAMG:  Solving for p, Initial residual = 0.00276975, Final residual = 7.86296e-07, No Iterations 15
time step continuity errors : sum local = 3.37424e-08, global = 1.1049e-18, cumulative = 2.39242e-16
ExecutionTime = 1.74 s  ClockTime = 2 s

Time = 124

smoothSolver:  Solving for Ux, Initial residual = 0.00155479, Final residual = 8.27333e-07, No Iterations 15
smoothSolver:  Solving for Uy, Initial residual = 0.00285669, Final residual = 9.71945e-07, No Iterations 19
GAMG:  Solving for p, Initial residual = 0.00277003, Final residual = 8.84841e-07, No Iterations 15
time step continuity errors : sum local = 3.80696e-08, global = -2.06493e-17, cumulative = 2.18593e-16
ExecutionTime = 1.75 s  ClockTime = 2 s

Time = 125

smoothSolver:  Solving for Ux, Initial residual = 0.00153561, Final residual = 8.11773e-07, No Iterations 15
smoothSolver:  Solving for Uy, Initial residual = 0.00287628, Final residual = 9.78908e-07, No Iterations 19
GAMG:  Solving for p, Initial residual = 0.00276563, Final residual = 9.44048e-07, No Iterations 15
time step continuity errors : sum local = 4.0721e-08, global = 6.38405e-19, cumulative = 2.19231e-16
ExecutionTime = 1.76 s  ClockTime = 2 s

Time = 126

smoothSolver:  Solving for Ux, Initial residual = 0.00151675, Final residual = 7.96616e-07, No Iterations 15
smoothSolver:  Solving for Uy, Initial residual = 0.0028807, Final residual = 9.79745e-07, No Iterations 19
GAMG:  Solving for p, Initial residual = 0.0027558, Final residual = 9.76778e-07, No Iterations 15
time step continuity errors : sum local = 4.2241e-08, global = 5.97749e-18, cumulative = 2.25208e-16
ExecutionTime = 1.77 s  ClockTime = 2 s

Time = 127

smoothSolver:  Solving for Ux, Initial residual = 0.00149821, Final residual = 7.81884e-07, No Iterations 15
smoothSolver:  Solving for Uy, Initial residual = 0.00286941, Final residual = 9.74929e-07, No Iterations 19
GAMG:  Solving for p, Initial residual = 0.00273979, Final residual = 9.88645e-07, No Iterations 15
time step continuity errors : sum local = 4.28638e-08, global = 5.61873e-18, cumulative = 2.30827e-16
ExecutionTime = 1.78 s  ClockTime = 2 s

Time = 128

smoothSolver:  Solving for Ux, Initial residual = 0.00147999, Final residual = 7.67596e-07, No Iterations 15
smoothSolver:  Solving for Uy, Initial residual = 0.00284251, Final residual = 9.64113e-07, No Iterations 19
GAMG:  Solving for p, Initial residual = 0.00271717, Final residual = 9.83133e-07, No Iterations 15
time step continuity errors : sum local = 4.27335e-08, global = 1.88446e-17, cumulative = 2.49672e-16
ExecutionTime = 1.79 s  ClockTime = 2 s

Time = 129

smoothSolver:  Solving for Ux, Initial residual = 0.00146211, Final residual = 7.53764e-07, No Iterations 15
smoothSolver:  Solving for Uy, Initial residual = 0.00280186, Final residual = 9.47757e-07, No Iterations 19
GAMG:  Solving for p, Initial residual = 0.00268719, Final residual = 9.61851e-07, No Iterations 15
time step continuity errors : sum local = 4.19142e-08, global = -1.18238e-18, cumulative = 2.48489e-16
ExecutionTime = 1.8 s  ClockTime = 2 s

Time = 130

smoothSolver:  Solving for Ux, Initial residual = 0.00144455, Final residual = 7.40396e-07, No Iterations 15
smoothSolver:  Solving for Uy, Initial residual = 0.00274791, Final residual = 9.26844e-07, No Iterations 19
GAMG:  Solving for p, Initial residual = 0.00265089, Final residual = 9.25038e-07, No Iterations 15
time step continuity errors : sum local = 4.04111e-08, global = -3.2497e-19, cumulative = 2.48164e-16
ExecutionTime = 1.81 s  ClockTime = 2 s

Time = 131

smoothSolver:  Solving for Ux, Initial residual = 0.00142732, Final residual = 7.27498e-07, No Iterations 15
smoothSolver:  Solving for Uy, Initial residual = 0.0026816, Final residual = 9.02655e-07, No Iterations 19
GAMG:  Solving for p, Initial residual = 0.00260883, Final residual = 8.72116e-07, No Iterations 15
time step continuity errors : sum local = 3.81936e-08, global = 2.96471e-17, cumulative = 2.77812e-16
ExecutionTime = 1.82 s  ClockTime = 2 s

Time = 132

smoothSolver:  Solving for Ux, Initial residual = 0.00141041, Final residual = 7.15065e-07, No Iterations 15
smoothSolver:  Solving for Uy, Initial residual = 0.00260523, Final residual = 8.74958e-07, No Iterations 19
GAMG:  Solving for p, Initial residual = 0.00256141, Final residual = 8.0155e-07, No Iterations 15
time step continuity errors : sum local = 3.51893e-08, global = 3.41109e-17, cumulative = 3.11922e-16
ExecutionTime = 1.83 s  ClockTime = 2 s

Time = 133

smoothSolver:  Solving for Ux, Initial residual = 0.00139383, Final residual = 7.03092e-07, No Iterations 15
smoothSolver:  Solving for Uy, Initial residual = 0.00252092, Final residual = 8.44506e-07, No Iterations 19
GAMG:  Solving for p, Initial residual = 0.00250838, Final residual = 7.00002e-07, No Iterations 15
time step continuity errors : sum local = 3.08045e-08, global = -7.45987e-18, cumulative = 3.04463e-16
ExecutionTime = 1.85 s  ClockTime = 2 s

Time = 134

smoothSolver:  Solving for Ux, Initial residual = 0.00137757, Final residual = 6.91566e-07, No Iterations 15
smoothSolver:  Solving for Uy, Initial residual = 0.00243061, Final residual = 8.1241e-07, No Iterations 19
GAMG:  Solving for p, Initial residual = 0.00245182, Final residual = 7.65536e-07, No Iterations 14
time step continuity errors : sum local = 3.35802e-08, global = 1.37752e-17, cumulative = 3.18238e-16
ExecutionTime = 1.86 s  ClockTime = 2 s

Time = 135

smoothSolver:  Solving for Ux, Initial residual = 0.00136163, Final residual = 6.8047e-07, No Iterations 15
smoothSolver:  Solving for Uy, Initial residual = 0.00233626, Final residual = 7.80019e-07, No Iterations 19
GAMG:  Solving for p, Initial residual = 0.00239314, Final residual = 8.48769e-07, No Iterations 14
time step continuity errors : sum local = 3.75727e-08, global = -3.21871e-18, cumulative = 3.15019e-16
ExecutionTime = 1.87 s  ClockTime = 2 s

Time = 136

smoothSolver:  Solving for Ux, Initial residual = 0.001346, Final residual = 6.69784e-07, No Iterations 15
smoothSolver:  Solving for Uy, Initial residual = 0.00223997, Final residual = 7.4709e-07, No Iterations 19
GAMG:  Solving for p, Initial residual = 0.00233352, Final residual = 9.12703e-07, No Iterations 14
time step continuity errors : sum local = 4.04884e-08, global = 9.49374e-18, cumulative = 3.24513e-16
ExecutionTime = 1.88 s  ClockTime = 2 s

Time = 137

smoothSolver:  Solving for Ux, Initial residual = 0.00133067, Final residual = 9.99422e-07, No Iterations 14
smoothSolver:  Solving for Uy, Initial residual = 0.00214417, Final residual = 7.14415e-07, No Iterations 19
GAMG:  Solving for p, Initial residual = 0.00227151, Final residual = 9.08253e-07, No Iterations 14
time step continuity errors : sum local = 4.03856e-08, global = 9.92512e-18, cumulative = 3.34438e-16
ExecutionTime = 1.89 s  ClockTime = 2 s

Time = 138

smoothSolver:  Solving for Ux, Initial residual = 0.00131565, Final residual = 9.84428e-07, No Iterations 14
smoothSolver:  Solving for Uy, Initial residual = 0.00205059, Final residual = 6.82687e-07, No Iterations 19
GAMG:  Solving for p, Initial residual = 0.00221073, Final residual = 8.60247e-07, No Iterations 14
time step continuity errors : sum local = 3.83401e-08, global = -1.55954e-17, cumulative = 3.18843e-16
ExecutionTime = 1.9 s  ClockTime = 2 s

Time = 139

smoothSolver:  Solving for Ux, Initial residual = 0.00130091, Final residual = 9.69901e-07, No Iterations 14
smoothSolver:  Solving for Uy, Initial residual = 0.0019614, Final residual = 9.63706e-07, No Iterations 18
GAMG:  Solving for p, Initial residual = 0.00215181, Final residual = 7.84628e-07, No Iterations 14
time step continuity errors : sum local = 3.50505e-08, global = 1.92185e-17, cumulative = 3.38061e-16
ExecutionTime = 1.91 s  ClockTime = 2 s

Time = 140

smoothSolver:  Solving for Ux, Initial residual = 0.00128644, Final residual = 9.55796e-07, No Iterations 14
smoothSolver:  Solving for Uy, Initial residual = 0.00187795, Final residual = 9.22793e-07, No Iterations 18
GAMG:  Solving for p, Initial residual = 0.00209454, Final residual = 7.01981e-07, No Iterations 14
time step continuity errors : sum local = 3.14325e-08, global = 2.46864e-17, cumulative = 3.62747e-16
ExecutionTime = 1.92 s  ClockTime = 2 s

Time = 141

smoothSolver:  Solving for Ux, Initial residual = 0.00127223, Final residual = 9.42077e-07, No Iterations 14
smoothSolver:  Solving for Uy, Initial residual = 0.00180178, Final residual = 8.85399e-07, No Iterations 18
GAMG:  Solving for p, Initial residual = 0.00203994, Final residual = 9.30516e-07, No Iterations 13
time step continuity errors : sum local = 4.15455e-08, global = -7.45095e-18, cumulative = 3.55297e-16
ExecutionTime = 1.93 s  ClockTime = 2 s

Time = 142

smoothSolver:  Solving for Ux, Initial residual = 0.00125828, Final residual = 9.28704e-07, No Iterations 14
smoothSolver:  Solving for Uy, Initial residual = 0.00173416, Final residual = 8.5207e-07, No Iterations 18
GAMG:  Solving for p, Initial residual = 0.00198869, Final residual = 7.98527e-07, No Iterations 13
time step continuity errors : sum local = 3.57315e-08, global = 1.55679e-17, cumulative = 3.70864e-16
ExecutionTime = 1.94 s  ClockTime = 2 s

Time = 143

smoothSolver:  Solving for Ux, Initial residual = 0.00124456, Final residual = 9.15641e-07, No Iterations 14
smoothSolver:  Solving for Uy, Initial residual = 0.00167572, Final residual = 8.22851e-07, No Iterations 18
GAMG:  Solving for p, Initial residual = 0.0019414, Final residual = 7.0263e-07, No Iterations 13
time step continuity errors : sum local = 3.15175e-08, global = 6.86759e-18, cumulative = 3.77732e-16
ExecutionTime = 1.95 s  ClockTime = 2 s

Time = 144

smoothSolver:  Solving for Ux, Initial residual = 0.00123107, Final residual = 9.02847e-07, No Iterations 14
smoothSolver:  Solving for Uy, Initial residual = 0.00162756, Final residual = 7.98162e-07, No Iterations 18
GAMG:  Solving for p, Initial residual = 0.00189838, Final residual = 6.6016e-07, No Iterations 13
time step continuity errors : sum local = 2.96835e-08, global = -2.6553e-18, cumulative = 3.75077e-16
ExecutionTime = 1.96 s  ClockTime = 2 s

Time = 145

smoothSolver:  Solving for Ux, Initial residual = 0.00121781, Final residual = 8.90287e-07, No Iterations 14
smoothSolver:  Solving for Uy, Initial residual = 0.00158964, Final residual = 7.78088e-07, No Iterations 18
GAMG:  Solving for p, Initial residual = 0.00186005, Final residual = 6.54623e-07, No Iterations 13
time step continuity errors : sum local = 2.94943e-08, global = -8.78873e-18, cumulative = 3.66288e-16
ExecutionTime = 1.97 s  ClockTime = 2 s

Time = 146

smoothSolver:  Solving for Ux, Initial residual = 0.00120475, Final residual = 8.77932e-07, No Iterations 14
smoothSolver:  Solving for Uy, Initial residual = 0.00156206, Final residual = 7.62557e-07, No Iterations 18
GAMG:  Solving for p, Initial residual = 0.00182659, Final residual = 6.87149e-07, No Iterations 13
time step continuity errors : sum local = 3.10167e-08, global = 1.29948e-17, cumulative = 3.79283e-16
ExecutionTime = 1.98 s  ClockTime = 2 s

Time = 147

smoothSolver:  Solving for Ux, Initial residual = 0.00119189, Final residual = 8.65757e-07, No Iterations 14
smoothSolver:  Solving for Uy, Initial residual = 0.00154395, Final residual = 7.51309e-07, No Iterations 18
GAMG:  Solving for p, Initial residual = 0.00179815, Final residual = 7.5722e-07, No Iterations 13
time step continuity errors : sum local = 3.42475e-08, global = -1.03516e-17, cumulative = 3.68931e-16
ExecutionTime = 1.99 s  ClockTime = 2 s

Time = 148

smoothSolver:  Solving for Ux, Initial residual = 0.00117922, Final residual = 8.5374e-07, No Iterations 14
smoothSolver:  Solving for Uy, Initial residual = 0.00153426, Final residual = 7.44067e-07, No Iterations 18
GAMG:  Solving for p, Initial residual = 0.0017758, Final residual = 8.34436e-07, No Iterations 13
time step continuity errors : sum local = 3.7815e-08, global = 4.08093e-18, cumulative = 3.73012e-16
ExecutionTime = 2 s  ClockTime = 2 s

Time = 149

smoothSolver:  Solving for Ux, Initial residual = 0.00116674, Final residual = 8.4187e-07, No Iterations 14
smoothSolver:  Solving for Uy, Initial residual = 0.00153183, Final residual = 7.40315e-07, No Iterations 18
GAMG:  Solving for p, Initial residual = 0.0017607, Final residual = 8.99994e-07, No Iterations 13
time step continuity errors : sum local = 4.08622e-08, global = 2.12977e-17, cumulative = 3.9431e-16
ExecutionTime = 2.01 s  ClockTime = 2 s

Time = 150

smoothSolver:  Solving for Ux, Initial residual = 0.00115444, Final residual = 8.30138e-07, No Iterations 14
smoothSolver:  Solving for Uy, Initial residual = 0.00153507, Final residual = 7.39847e-07, No Iterations 18
GAMG:  Solving for p, Initial residual = 0.00175215, Final residual = 9.57758e-07, No Iterations 13
time step continuity errors : sum local = 4.35661e-08, global = 1.2837e-17, cumulative = 4.07147e-16
ExecutionTime = 2.02 s  ClockTime = 2 s

Time = 151

smoothSolver:  Solving for Ux, Initial residual = 0.00114231, Final residual = 8.18539e-07, No Iterations 14
smoothSolver:  Solving for Uy, Initial residual = 0.00154255, Final residual = 7.42078e-07, No Iterations 18
GAMG:  Solving for p, Initial residual = 0.00174585, Final residual = 6.62572e-07, No Iterations 14
time step continuity errors : sum local = 3.03653e-08, global = -7.72447e-18, cumulative = 3.99422e-16
ExecutionTime = 2.04 s  ClockTime = 2 s

Time = 152

smoothSolver:  Solving for Ux, Initial residual = 0.00113034, Final residual = 8.07075e-07, No Iterations 14
smoothSolver:  Solving for Uy, Initial residual = 0.00155293, Final residual = 7.45817e-07, No Iterations 18
GAMG:  Solving for p, Initial residual = 0.00174097, Final residual = 6.82731e-07, No Iterations 14
time step continuity errors : sum local = 3.135e-08, global = -3.56934e-18, cumulative = 3.95853e-16
ExecutionTime = 2.05 s  ClockTime = 2 s

Time = 153

smoothSolver:  Solving for Ux, Initial residual = 0.00111854, Final residual = 7.95747e-07, No Iterations 14
smoothSolver:  Solving for Uy, Initial residual = 0.00156488, Final residual = 7.50485e-07, No Iterations 18
GAMG:  Solving for p, Initial residual = 0.00173685, Final residual = 6.93419e-07, No Iterations 14
time step continuity errors : sum local = 3.19026e-08, global = 8.51891e-18, cumulative = 4.04372e-16
ExecutionTime = 2.06 s  ClockTime = 2 s

Time = 154

smoothSolver:  Solving for Ux, Initial residual = 0.00110689, Final residual = 7.84563e-07, No Iterations 14
smoothSolver:  Solving for Uy, Initial residual = 0.00157675, Final residual = 7.55175e-07, No Iterations 18
GAMG:  Solving for p, Initial residual = 0.0017333, Final residual = 6.90537e-07, No Iterations 14
time step continuity errors : sum local = 3.18319e-08, global = 4.40598e-18, cumulative = 4.08778e-16
ExecutionTime = 2.07 s  ClockTime = 2 s

Time = 155

smoothSolver:  Solving for Ux, Initial residual = 0.0010954, Final residual = 7.73529e-07, No Iterations 14
smoothSolver:  Solving for Uy, Initial residual = 0.00158734, Final residual = 7.5948e-07, No Iterations 18
GAMG:  Solving for p, Initial residual = 0.00172994, Final residual = 6.74746e-07, No Iterations 14
time step continuity errors : sum local = 3.11652e-08, global = 3.97869e-18, cumulative = 4.12757e-16
ExecutionTime = 2.09 s  ClockTime = 2 s

Time = 156

smoothSolver:  Solving for Ux, Initial residual = 0.00108407, Final residual = 7.62657e-07, No Iterations 14
smoothSolver:  Solving for Uy, Initial residual = 0.00159559, Final residual = 7.62708e-07, No Iterations 18
GAMG:  Solving for p, Initial residual = 0.00172617, Final residual = 9.78682e-07, No Iterations 13
time step continuity errors : sum local = 4.50544e-08, global = -1.52354e-17, cumulative = 3.97521e-16
ExecutionTime = 2.1 s  ClockTime = 2 s

Time = 157

smoothSolver:  Solving for Ux, Initial residual = 0.00107289, Final residual = 7.51957e-07, No Iterations 14
smoothSolver:  Solving for Uy, Initial residual = 0.00160057, Final residual = 7.64349e-07, No Iterations 18
GAMG:  Solving for p, Initial residual = 0.00172122, Final residual = 9.09189e-07, No Iterations 13
time step continuity errors : sum local = 4.19449e-08, global = -7.07253e-18, cumulative = 3.90449e-16
ExecutionTime = 2.11 s  ClockTime = 2 s

Time = 158

smoothSolver:  Solving for Ux, Initial residual = 0.00106186, Final residual = 7.41444e-07, No Iterations 14
smoothSolver:  Solving for Uy, Initial residual = 0.00160158, Final residual = 7.63889e-07, No Iterations 18
GAMG:  Solving for p, Initial residual = 0.00171492, Final residual = 8.26682e-07, No Iterations 13
time step continuity errors : sum local = 3.82219e-08, global = 1.01544e-17, cumulative = 4.00603e-16
ExecutionTime = 2.12 s  ClockTime = 2 s

Time = 159

smoothSolver:  Solving for Ux, Initial residual = 0.00105099, Final residual = 7.31126e-07, No Iterations 14
smoothSolver:  Solving for Uy, Initial residual = 0.00159847, Final residual = 7.61396e-07, No Iterations 18
GAMG:  Solving for p, Initial residual = 0.00170675, Final residual = 7.45352e-07, No Iterations 13
time step continuity errors : sum local = 3.45513e-08, global = 2.93819e-18, cumulative = 4.03541e-16
ExecutionTime = 2.13 s  ClockTime = 2 s

Time = 160

smoothSolver:  Solving for Ux, Initial residual = 0.00104026, Final residual = 7.21016e-07, No Iterations 14
smoothSolver:  Solving for Uy, Initial residual = 0.00159083, Final residual = 7.56789e-07, No Iterations 18
GAMG:  Solving for p, Initial residual = 0.00169649, Final residual = 6.74813e-07, No Iterations 13
time step continuity errors : sum local = 3.13612e-08, global = 2.75407e-18, cumulative = 4.06295e-16
ExecutionTime = 2.14 s  ClockTime = 2 s

Time = 161

smoothSolver:  Solving for Ux, Initial residual = 0.00102969, Final residual = 7.11121e-07, No Iterations 14
smoothSolver:  Solving for Uy, Initial residual = 0.00157857, Final residual = 7.50049e-07, No Iterations 18
GAMG:  Solving for p, Initial residual = 0.0016839, Final residual = 9.75849e-07, No Iterations 12
[...]

Courant Number mean: 0.259599 max: 0.993195
deltaT = 0.0192308
smoothSolver:  Solving for Ux, Initial residual = 6.59878e-06, Final residual = 6.59878e-06, No Iterations 0
smoothSolver:  Solving for Uy, Initial residual = 7.44443e-05, Final residual = 4.51572e-06, No Iterations 1
DICPCG:  Solving for p, Initial residual = 0.000677265, Final residual = 3.27976e-05, No Iterations 66
DICPCG:  Solving for p, Initial residual = 9.20782e-05, Final residual = 4.34581e-06, No Iterations 28
DICPCG:  Solving for p, Initial residual = 1.28831e-05, Final residual = 9.58457e-07, No Iterations 18
time step continuity errors : sum local = 5.62576e-11, global = 1.93334e-20, cumulative = 3.90152e-17
DICPCG:  Solving for p, Initial residual = 0.000633903, Final residual = 2.93177e-05, No Iterations 69
DICPCG:  Solving for p, Initial residual = 8.70096e-05, Final residual = 3.85621e-06, No Iterations 28
DICPCG:  Solving for p, Initial residual = 1.18699e-05, Final residual = 8.49819e-07, No Iterations 19
time step continuity errors : sum local = 5.38743e-11, global = 1.48824e-19, cumulative = 3.9164e-17
ExecutionTime = 3.9 s  ClockTime = 4 s

Time = 1.71154

Courant Number mean: 0.259602 max: 0.993204
deltaT = 0.0192308
smoothSolver:  Solving for Ux, Initial residual = 6.59191e-06, Final residual = 6.59191e-06, No Iterations 0
smoothSolver:  Solving for Uy, Initial residual = 7.40455e-05, Final residual = 4.49436e-06, No Iterations 1
DICPCG:  Solving for p, Initial residual = 0.000670164, Final residual = 3.29689e-05, No Iterations 39
DICPCG:  Solving for p, Initial residual = 8.83239e-05, Final residual = 3.99036e-06, No Iterations 73
DICPCG:  Solving for p, Initial residual = 1.33207e-05, Final residual = 9.02301e-07, No Iterations 20
time step continuity errors : sum local = 5.60718e-11, global = -1.3109e-20, cumulative = 3.91509e-17
DICPCG:  Solving for p, Initial residual = 0.000627318, Final residual = 2.89652e-05, No Iterations 69
DICPCG:  Solving for p, Initial residual = 8.54368e-05, Final residual = 3.79802e-06, No Iterations 28
DICPCG:  Solving for p, Initial residual = 1.1658e-05, Final residual = 8.45047e-07, No Iterations 19
time step continuity errors : sum local = 5.263e-11, global = 3.85325e-19, cumulative = 3.95362e-17
ExecutionTime = 3.93 s  ClockTime = 4 s

Time = 1.73077

Courant Number mean: 0.259605 max: 0.993212
deltaT = 0.0192308
smoothSolver:  Solving for Ux, Initial residual = 6.58521e-06, Final residual = 6.58521e-06, No Iterations 0
smoothSolver:  Solving for Uy, Initial residual = 7.36729e-05, Final residual = 4.46636e-06, No Iterations 1
DICPCG:  Solving for p, Initial residual = 0.000662991, Final residual = 3.22784e-05, No Iterations 39
DICPCG:  Solving for p, Initial residual = 8.68829e-05, Final residual = 4.32298e-06, No Iterations 72
DICPCG:  Solving for p, Initial residual = 1.30764e-05, Final residual = 9.1446e-07, No Iterations 20
time step continuity errors : sum local = 5.64248e-11, global = 3.06116e-19, cumulative = 3.98423e-17
DICPCG:  Solving for p, Initial residual = 0.000620679, Final residual = 3.06291e-05, No Iterations 68
DICPCG:  Solving for p, Initial residual = 8.40149e-05, Final residual = 4.08377e-06, No Iterations 28
DICPCG:  Solving for p, Initial residual = 1.16034e-05, Final residual = 9.8172e-07, No Iterations 18
time step continuity errors : sum local = 5.72979e-11, global = -2.33357e-19, cumulative = 3.9609e-17
ExecutionTime = 3.96 s  ClockTime = 4 s

Time = 1.75

Courant Number mean: 0.259607 max: 0.99322
deltaT = 0.0192308
smoothSolver:  Solving for Ux, Initial residual = 6.57848e-06, Final residual = 6.57848e-06, No Iterations 0
smoothSolver:  Solving for Uy, Initial residual = 7.32073e-05, Final residual = 4.4386e-06, No Iterations 1
DICPCG:  Solving for p, Initial residual = 0.000656254, Final residual = 3.18226e-05, No Iterations 24
DICPCG:  Solving for p, Initial residual = 8.75311e-05, Final residual = 4.09733e-06, No Iterations 66
DICPCG:  Solving for p, Initial residual = 1.45203e-05, Final residual = 8.71204e-07, No Iterations 29
time step continuity errors : sum local = 5.4567e-11, global = -5.48882e-19, cumulative = 3.90601e-17
DICPCG:  Solving for p, Initial residual = 0.000614268, Final residual = 2.96358e-05, No Iterations 68
DICPCG:  Solving for p, Initial residual = 8.2214e-05, Final residual = 3.97775e-06, No Iterations 28
DICPCG:  Solving for p, Initial residual = 1.13442e-05, Final residual = 9.63011e-07, No Iterations 18
time step continuity errors : sum local = 5.61627e-11, global = -1.02441e-19, cumulative = 3.89577e-17
ExecutionTime = 3.99 s  ClockTime = 4 s

Time = 1.76923

Courant Number mean: 0.25961 max: 0.993228
deltaT = 0.0192308
smoothSolver:  Solving for Ux, Initial residual = 6.57165e-06, Final residual = 6.57165e-06, No Iterations 0
smoothSolver:  Solving for Uy, Initial residual = 7.27891e-05, Final residual = 4.40781e-06, No Iterations 1
DICPCG:  Solving for p, Initial residual = 0.000649381, Final residual = 3.22248e-05, No Iterations 23
DICPCG:  Solving for p, Initial residual = 8.85756e-05, Final residual = 3.90959e-06, No Iterations 66
DICPCG:  Solving for p, Initial residual = 1.41506e-05, Final residual = 8.47085e-07, No Iterations 29
time step continuity errors : sum local = 5.30088e-11, global = -8.2528e-20, cumulative = 3.88751e-17
DICPCG:  Solving for p, Initial residual = 0.000608113, Final residual = 2.88251e-05, No Iterations 68
DICPCG:  Solving for p, Initial residual = 8.0431e-05, Final residual = 3.88324e-06, No Iterations 28
DICPCG:  Solving for p, Initial residual = 1.10797e-05, Final residual = 9.5554e-07, No Iterations 18
time step continuity errors : sum local = 5.55008e-11, global = 9.82347e-20, cumulative = 3.89734e-17
ExecutionTime = 4.02 s  ClockTime = 4 s

Time = 1.78846

Courant Number mean: 0.259613 max: 0.993236
deltaT = 0.0192308
smoothSolver:  Solving for Ux, Initial residual = 6.56485e-06, Final residual = 6.56485e-06, No Iterations 0
smoothSolver:  Solving for Uy, Initial residual = 7.23551e-05, Final residual = 4.37419e-06, No Iterations 1
DICPCG:  Solving for p, Initial residual = 0.000642659, Final residual = 3.07713e-05, No Iterations 23
DICPCG:  Solving for p, Initial residual = 8.66836e-05, Final residual = 3.77608e-06, No Iterations 66
DICPCG:  Solving for p, Initial residual = 1.37232e-05, Final residual = 9.94551e-07, No Iterations 28
time step continuity errors : sum local = 6.09178e-11, global = 8.86326e-20, cumulative = 3.9062e-17
DICPCG:  Solving for p, Initial residual = 0.000601883, Final residual = 2.80051e-05, No Iterations 68
DICPCG:  Solving for p, Initial residual = 7.87745e-05, Final residual = 3.77191e-06, No Iterations 28
DICPCG:  Solving for p, Initial residual = 1.07991e-05, Final residual = 9.46293e-07, No Iterations 18
time step continuity errors : sum local = 5.46902e-11, global = -4.1985e-19, cumulative = 3.86421e-17
ExecutionTime = 4.05 s  ClockTime = 4 s

Time = 1.80769

Courant Number mean: 0.259616 max: 0.993244
deltaT = 0.0192308
smoothSolver:  Solving for Ux, Initial residual = 6.55819e-06, Final residual = 6.55819e-06, No Iterations 0
smoothSolver:  Solving for Uy, Initial residual = 7.1897e-05, Final residual = 4.33919e-06, No Iterations 1
DICPCG:  Solving for p, Initial residual = 0.00063587, Final residual = 2.931e-05, No Iterations 23
DICPCG:  Solving for p, Initial residual = 8.47977e-05, Final residual = 3.81394e-06, No Iterations 66
DICPCG:  Solving for p, Initial residual = 1.33847e-05, Final residual = 9.55512e-07, No Iterations 28
time step continuity errors : sum local = 5.84728e-11, global = -4.30436e-19, cumulative = 3.82117e-17
DICPCG:  Solving for p, Initial residual = 0.000595719, Final residual = 2.73185e-05, No Iterations 68
DICPCG:  Solving for p, Initial residual = 7.72322e-05, Final residual = 3.64812e-06, No Iterations 28
DICPCG:  Solving for p, Initial residual = 1.0527e-05, Final residual = 9.94386e-07, No Iterations 17
time step continuity errors : sum local = 5.70351e-11, global = -3.21185e-19, cumulative = 3.78905e-17
ExecutionTime = 4.08 s  ClockTime = 4 s

Time = 1.82692

Courant Number mean: 0.259619 max: 0.993252
deltaT = 0.0192308
smoothSolver:  Solving for Ux, Initial residual = 6.55155e-06, Final residual = 6.55155e-06, No Iterations 0
smoothSolver:  Solving for Uy, Initial residual = 7.14325e-05, Final residual = 4.3004e-06, No Iterations 1
DICPCG:  Solving for p, Initial residual = 0.000628963, Final residual = 2.76393e-05, No Iterations 23
DICPCG:  Solving for p, Initial residual = 8.27893e-05, Final residual = 3.97419e-06, No Iterations 66
DICPCG:  Solving for p, Initial residual = 1.31108e-05, Final residual = 9.20551e-07, No Iterations 28
time step continuity errors : sum local = 5.62344e-11, global = -2.47709e-19, cumulative = 3.76428e-17
DICPCG:  Solving for p, Initial residual = 0.000589756, Final residual = 2.93799e-05, No Iterations 39
DICPCG:  Solving for p, Initial residual = 7.56799e-05, Final residual = 3.50632e-06, No Iterations 71
DICPCG:  Solving for p, Initial residual = 1.10881e-05, Final residual = 9.43369e-07, No Iterations 16
time step continuity errors : sum local = 5.73841e-11, global = -2.88108e-19, cumulative = 3.73547e-17
ExecutionTime = 4.11 s  ClockTime = 4 s

Time = 1.84615

Courant Number mean: 0.259621 max: 0.99326
deltaT = 0.0192308
smoothSolver:  Solving for Ux, Initial residual = 6.54478e-06, Final residual = 6.54478e-06, No Iterations 0
smoothSolver:  Solving for Uy, Initial residual = 7.09351e-05, Final residual = 4.25977e-06, No Iterations 1
DICPCG:  Solving for p, Initial residual = 0.00062245, Final residual = 2.98952e-05, No Iterations 22
DICPCG:  Solving for p, Initial residual = 8.33716e-05, Final residual = 4.12289e-06, No Iterations 67
DICPCG:  Solving for p, Initial residual = 1.28265e-05, Final residual = 9.74828e-07, No Iterations 28
time step continuity errors : sum local = 5.901e-11, global = -7.04063e-20, cumulative = 3.72843e-17
DICPCG:  Solving for p, Initial residual = 0.000583951, Final residual = 2.89065e-05, No Iterations 24
DICPCG:  Solving for p, Initial residual = 7.62614e-05, Final residual = 3.37879e-06, No Iterations 66
DICPCG:  Solving for p, Initial residual = 1.23376e-05, Final residual = 9.84694e-07, No Iterations 24
time step continuity errors : sum local = 6.01404e-11, global = 1.01704e-19, cumulative = 3.7386e-17
ExecutionTime = 4.14 s  ClockTime = 4 s

Time = 1.86538

Courant Number mean: 0.259624 max: 0.993268
deltaT = 0.0192308
smoothSolver:  Solving for Ux, Initial residual = 6.53831e-06, Final residual = 6.53831e-06, No Iterations 0
smoothSolver:  Solving for Uy, Initial residual = 7.045e-05, Final residual = 4.21666e-06, No Iterations 1
DICPCG:  Solving for p, Initial residual = 0.000615927, Final residual = 2.87325e-05, No Iterations 22
DICPCG:  Solving for p, Initial residual = 8.12374e-05, Final residual = 3.50753e-06, No Iterations 68
DICPCG:  Solving for p, Initial residual = 1.25841e-05, Final residual = 9.46673e-07, No Iterations 28
time step continuity errors : sum local = 5.72892e-11, global = -7.60536e-20, cumulative = 3.731e-17
DICPCG:  Solving for p, Initial residual = 0.00057791, Final residual = 2.8341e-05, No Iterations 24
DICPCG:  Solving for p, Initial residual = 7.47383e-05, Final residual = 3.17432e-06, No Iterations 66
DICPCG:  Solving for p, Initial residual = 1.18826e-05, Final residual = 9.53915e-07, No Iterations 24
time step continuity errors : sum local = 5.82207e-11, global = -1.93984e-19, cumulative = 3.7116e-17
ExecutionTime = 4.17 s  ClockTime = 4 s

Time = 1.88462

Courant Number mean: 0.259627 max: 0.993276
deltaT = 0.0192308
smoothSolver:  Solving for Ux, Initial residual = 6.53184e-06, Final residual = 6.53184e-06, No Iterations 0
smoothSolver:  Solving for Uy, Initial residual = 6.99664e-05, Final residual = 4.172e-06, No Iterations 1
DICPCG:  Solving for p, Initial residual = 0.000610379, Final residual = 2.63741e-05, No Iterations 22
DICPCG:  Solving for p, Initial residual = 7.90198e-05, Final residual = 3.61722e-06, No Iterations 68
DICPCG:  Solving for p, Initial residual = 1.23042e-05, Final residual = 9.88426e-07, No Iterations 24
time step continuity errors : sum local = 5.91115e-11, global = -3.87021e-19, cumulative = 3.67289e-17
DICPCG:  Solving for p, Initial residual = 0.000572129, Final residual = 2.76352e-05, No Iterations 23
DICPCG:  Solving for p, Initial residual = 7.46298e-05, Final residual = 3.28483e-06, No Iterations 67
DICPCG:  Solving for p, Initial residual = 1.15547e-05, Final residual = 9.9865e-07, No Iterations 24
time step continuity errors : sum local = 6.03471e-11, global = -4.5724e-19, cumulative = 3.62717e-17
ExecutionTime = 4.19 s  ClockTime = 4 s

Time = 1.90385

Courant Number mean: 0.259629 max: 0.993283
deltaT = 0.0192308
smoothSolver:  Solving for Ux, Initial residual = 6.52542e-06, Final residual = 6.52542e-06, No Iterations 0
smoothSolver:  Solving for Uy, Initial residual = 6.94715e-05, Final residual = 4.1244e-06, No Iterations 1
DICPCG:  Solving for p, Initial residual = 0.000605039, Final residual = 2.95979e-05, No Iterations 20
DICPCG:  Solving for p, Initial residual = 7.98486e-05, Final residual = 3.53846e-06, No Iterations 70
DICPCG:  Solving for p, Initial residual = 1.22487e-05, Final residual = 9.59017e-07, No Iterations 23
time step continuity errors : sum local = 5.68489e-11, global = 5.60069e-20, cumulative = 3.63277e-17
DICPCG:  Solving for p, Initial residual = 0.000566571, Final residual = 2.61195e-05, No Iterations 23
DICPCG:  Solving for p, Initial residual = 7.28572e-05, Final residual = 3.34963e-06, No Iterations 67
DICPCG:  Solving for p, Initial residual = 1.1247e-05, Final residual = 9.7835e-07, No Iterations 24
time step continuity errors : sum local = 5.89178e-11, global = 5.30251e-19, cumulative = 3.6858e-17
ExecutionTime = 4.22 s  ClockTime = 4 s

Time = 1.92308

Courant Number mean: 0.259632 max: 0.993291
deltaT = 0.0192308
smoothSolver:  Solving for Ux, Initial residual = 6.51917e-06, Final residual = 6.51917e-06, No Iterations 0
smoothSolver:  Solving for Uy, Initial residual = 6.89096e-05, Final residual = 4.07501e-06, No Iterations 1
DICPCG:  Solving for p, Initial residual = 0.000600022, Final residual = 2.77078e-05, No Iterations 20
DICPCG:  Solving for p, Initial residual = 7.80369e-05, Final residual = 3.62806e-06, No Iterations 70
DICPCG:  Solving for p, Initial residual = 1.19577e-05, Final residual = 9.32348e-07, No Iterations 23
time step continuity errors : sum local = 5.49962e-11, global = 5.4089e-19, cumulative = 3.73989e-17
DICPCG:  Solving for p, Initial residual = 0.000560951, Final residual = 2.7632e-05, No Iterations 22
DICPCG:  Solving for p, Initial residual = 7.27563e-05, Final residual = 3.6206e-06, No Iterations 68
DICPCG:  Solving for p, Initial residual = 1.13817e-05, Final residual = 9.76681e-07, No Iterations 24
time step continuity errors : sum local = 5.84693e-11, global = 4.27064e-19, cumulative = 3.78259e-17
ExecutionTime = 4.25 s  ClockTime = 4 s

Time = 1.94231

Courant Number mean: 0.259635 max: 0.993299
deltaT = 0.0192308
smoothSolver:  Solving for Ux, Initial residual = 6.51299e-06, Final residual = 6.51299e-06, No Iterations 0
smoothSolver:  Solving for Uy, Initial residual = 6.84004e-05, Final residual = 4.02472e-06, No Iterations 1
DICPCG:  Solving for p, Initial residual = 0.000595587, Final residual = 2.96454e-05, No Iterations 19
DICPCG:  Solving for p, Initial residual = 7.74029e-05, Final residual = 3.86992e-06, No Iterations 71
DICPCG:  Solving for p, Initial residual = 1.1917e-05, Final residual = 9.75064e-07, No Iterations 22
time step continuity errors : sum local = 5.68729e-11, global = 6.55248e-19, cumulative = 3.84812e-17
DICPCG:  Solving for p, Initial residual = 0.000555621, Final residual = 2.56898e-05, No Iterations 22
DICPCG:  Solving for p, Initial residual = 7.12059e-05, Final residual = 3.35077e-06, No Iterations 69
DICPCG:  Solving for p, Initial residual = 1.0975e-05, Final residual = 9.34864e-07, No Iterations 24
time step continuity errors : sum local = 5.58772e-11, global = 2.18131e-19, cumulative = 3.86993e-17
ExecutionTime = 4.28 s  ClockTime = 4 s

Time = 1.96154

Courant Number mean: 0.259638 max: 0.993307
deltaT = 0.0192308
smoothSolver:  Solving for Ux, Initial residual = 6.50695e-06, Final residual = 6.50695e-06, No Iterations 0
smoothSolver:  Solving for Uy, Initial residual = 6.79e-05, Final residual = 3.9699e-06, No Iterations 1
DICPCG:  Solving for p, Initial residual = 0.000591506, Final residual = 2.88689e-05, No Iterations 18
DICPCG:  Solving for p, Initial residual = 7.5659e-05, Final residual = 3.3873e-06, No Iterations 72
DICPCG:  Solving for p, Initial residual = 1.11718e-05, Final residual = 9.42204e-07, No Iterations 21
time step continuity errors : sum local = 5.48241e-11, global = 1.11466e-19, cumulative = 3.88108e-17
DICPCG:  Solving for p, Initial residual = 0.000550896, Final residual = 2.34708e-05, No Iterations 22
DICPCG:  Solving for p, Initial residual = 6.9093e-05, Final residual = 3.41831e-06, No Iterations 69
DICPCG:  Solving for p, Initial residual = 1.07679e-05, Final residual = 9.8773e-07, No Iterations 23
time step continuity errors : sum local = 5.82813e-11, global = 5.35932e-19, cumulative = 3.93467e-17
ExecutionTime = 4.31 s  ClockTime = 4 s

Time = 1.98077

Courant Number mean: 0.25964 max: 0.993314
deltaT = 0.0192308
smoothSolver:  Solving for Ux, Initial residual = 6.50096e-06, Final residual = 6.50096e-06, No Iterations 0
smoothSolver:  Solving for Uy, Initial residual = 6.73732e-05, Final residual = 3.91389e-06, No Iterations 1
DICPCG:  Solving for p, Initial residual = 0.000587468, Final residual = 2.79676e-05, No Iterations 18
DICPCG:  Solving for p, Initial residual = 7.47936e-05, Final residual = 3.69633e-06, No Iterations 71
DICPCG:  Solving for p, Initial residual = 1.11729e-05, Final residual = 8.91968e-07, No Iterations 21
time step continuity errors : sum local = 5.16478e-11, global = 1.77252e-19, cumulative = 3.95239e-17
DICPCG:  Solving for p, Initial residual = 0.000546418, Final residual = 2.59704e-05, No Iterations 21
DICPCG:  Solving for p, Initial residual = 6.93624e-05, Final residual = 3.33628e-06, No Iterations 70
DICPCG:  Solving for p, Initial residual = 1.05508e-05, Final residual = 9.79233e-07, No Iterations 22
time step continuity errors : sum local = 5.73297e-11, global = 5.18515e-19, cumulative = 4.00425e-17
ExecutionTime = 4.33 s  ClockTime = 4 s

Time = 2

Courant Number mean: 0.259643 max: 0.993322
deltaT = 0.0192308
smoothSolver:  Solving for Ux, Initial residual = 6.49501e-06, Final residual = 6.49501e-06, No Iterations 0
smoothSolver:  Solving for Uy, Initial residual = 6.67878e-05, Final residual = 3.85493e-06, No Iterations 1
DICPCG:  Solving for p, Initial residual = 0.000583826, Final residual = 2.74402e-05, No Iterations 18
DICPCG:  Solving for p, Initial residual = 7.43928e-05, Final residual = 3.38938e-06, No Iterations 71
DICPCG:  Solving for p, Initial residual = 1.07739e-05, Final residual = 9.83753e-07, No Iterations 20
time step continuity errors : sum local = 5.63535e-11, global = -7.90257e-21, cumulative = 4.00346e-17
DICPCG:  Solving for p, Initial residual = 0.000542441, Final residual = 2.58447e-05, No Iterations 20
DICPCG:  Solving for p, Initial residual = 6.76855e-05, Final residual = 2.98075e-06, No Iterations 72
DICPCG:  Solving for p, Initial residual = 1.02509e-05, Final residual = 9.32032e-07, No Iterations 22
time step continuity errors : sum local = 5.43848e-11, global = 4.36134e-19, cumulative = 4.04707e-17
ExecutionTime = 4.37 s  ClockTime = 5 s

End

[?2004hdocker-openfoam2312:~/
openfoam$ exit
[?2004lexit
