/*--------------------------------*- C++ -*----------------------------------*\
  =========                 |
  \\      /  F ield         | OpenFOAM: The Open Source CFD Toolbox
   \\    /   O peration     | Website:  https://openfoam.org
    \\  /    A nd           | Version:  11
     \\/     M anipulation  |
\*---------------------------------------------------------------------------*/
FoamFile
{
    format      ascii;
    class       dictionary;
    location    "constant";
    object      physicalProperties;
}
// * * * * * * * * * * * * * * * * * * * * * * * * * * * * * * * * * * * * * //

viscosityModel  constant;

nu              [0  2 -1  0 0 0 0] 1e-05;

D0              [0  2 -1  0 0 0 0] 2.42e-05;
tau             [0  0  0  0 0 0 0] 3;

lam             [0  1  0  0 0 0 0] 7e-08;
r0              [0  1  0  0 0 0 0] 5e-08;
Xs              [0  0  0  0 0 0 0] .361111111111;
Xa              [0  0  0  0 0 0 0] .222222222222;
Xl              [0  0  0  0 0 0 0] .0908379777742182;


// ************************************************************************* //
